Program Version,EnergyPlus, Version 9.4.0-998c4b761e, YMD=2021.02.22 12:22
! This file shows details about the branches, nodes, and other
! elements of the flow connections.
! This file is intended for use in "debugging" potential problems
! that may also be detected by the program, but may be more easily
! identified by "eye".
! This file is also intended to support software which draws a
! schematic diagram of the HVAC system.
! ===============================================================
! #Nodes,<Number of Unique Nodes>
 #Nodes,491
! <Node>,<NodeNumber>,<Node Name>,<Node Fluid Type>,<# Times Node Referenced After Definition>
 Node,1,AUDITORIUM_ZN_1_FLR_1 ZN PSZ-AC_3-7 DIFFUSER OUTLET AIR NODE,Air,4
 Node,2,AUDITORIUM_ZN_1_FLR_1 ZN RETURN AIR NODE,Air,2
 Node,3,AUX_GYM_ZN_1_FLR_1 ZN PSZ-AC_2-6 DIFFUSER OUTLET AIR NODE,Air,4
 Node,4,AUX_GYM_ZN_1_FLR_1 ZN RETURN AIR NODE,Air,2
 Node,5,BATHROOMS_ZN_1_FLR_1 ZN VAV TERMINAL OUTLET AIR NODE,Air,4
 Node,6,BATHROOMS_ZN_1_FLR_1 ZN EXHAUST FAN INLET AIR NODE,Air,2
 Node,7,BATHROOMS_ZN_1_FLR_1 ZN RETURN AIR NODE,Air,2
 Node,8,BATHROOMS_ZN_1_FLR_2 ZN VAV TERMINAL OUTLET AIR NODE,Air,4
 Node,9,BATHROOMS_ZN_1_FLR_2 ZN EXHAUST FAN INLET AIR NODE,Air,2
 Node,10,BATHROOMS_ZN_1_FLR_2 ZN RETURN AIR NODE,Air,2
 Node,11,CAFETERIA_ZN_1_FLR_1 ZN PSZ-AC_5-9 DIFFUSER OUTLET AIR NODE,Air,4
 Node,12,CAFETERIA_ZN_1_FLR_1 ZN RETURN AIR NODE,Air,2
 Node,13,CORNER_CLASS_1_POD_1_ZN_1_FLR_1 ZN VAV TERMINAL OUTLET AIR NODE,Air,4
 Node,14,CORNER_CLASS_1_POD_1_ZN_1_FLR_1 ZN RETURN AIR NODE,Air,2
 Node,15,CORNER_CLASS_1_POD_1_ZN_1_FLR_2 ZN VAV TERMINAL OUTLET AIR NODE,Air,4
 Node,16,CORNER_CLASS_1_POD_1_ZN_1_FLR_2 ZN RETURN AIR NODE,Air,2
 Node,17,CORNER_CLASS_1_POD_2_ZN_1_FLR_1 ZN VAV TERMINAL OUTLET AIR NODE,Air,4
 Node,18,CORNER_CLASS_1_POD_2_ZN_1_FLR_1 ZN RETURN AIR NODE,Air,2
 Node,19,CORNER_CLASS_1_POD_2_ZN_1_FLR_2 ZN VAV TERMINAL OUTLET AIR NODE,Air,4
 Node,20,CORNER_CLASS_1_POD_2_ZN_1_FLR_2 ZN RETURN AIR NODE,Air,2
 Node,21,CORNER_CLASS_1_POD_3_ZN_1_FLR_1 ZN VAV TERMINAL OUTLET AIR NODE,Air,4
 Node,22,CORNER_CLASS_1_POD_3_ZN_1_FLR_1 ZN RETURN AIR NODE,Air,2
 Node,23,CORNER_CLASS_1_POD_3_ZN_1_FLR_2 ZN VAV TERMINAL OUTLET AIR NODE,Air,4
 Node,24,CORNER_CLASS_1_POD_3_ZN_1_FLR_2 ZN RETURN AIR NODE,Air,2
 Node,25,CORNER_CLASS_2_POD_1_ZN_1_FLR_1 ZN VAV TERMINAL OUTLET AIR NODE,Air,4
 Node,26,CORNER_CLASS_2_POD_1_ZN_1_FLR_1 ZN RETURN AIR NODE,Air,2
 Node,27,CORNER_CLASS_2_POD_1_ZN_1_FLR_2 ZN VAV TERMINAL OUTLET AIR NODE,Air,4
 Node,28,CORNER_CLASS_2_POD_1_ZN_1_FLR_2 ZN RETURN AIR NODE,Air,2
 Node,29,CORNER_CLASS_2_POD_2_ZN_1_FLR_1 ZN VAV TERMINAL OUTLET AIR NODE,Air,4
 Node,30,CORNER_CLASS_2_POD_2_ZN_1_FLR_1 ZN RETURN AIR NODE,Air,2
 Node,31,CORNER_CLASS_2_POD_2_ZN_1_FLR_2 ZN VAV TERMINAL OUTLET AIR NODE,Air,4
 Node,32,CORNER_CLASS_2_POD_2_ZN_1_FLR_2 ZN RETURN AIR NODE,Air,2
 Node,33,CORNER_CLASS_2_POD_3_ZN_1_FLR_1 ZN VAV TERMINAL OUTLET AIR NODE,Air,4
 Node,34,CORNER_CLASS_2_POD_3_ZN_1_FLR_1 ZN RETURN AIR NODE,Air,2
 Node,35,CORNER_CLASS_2_POD_3_ZN_1_FLR_2 ZN VAV TERMINAL OUTLET AIR NODE,Air,4
 Node,36,CORNER_CLASS_2_POD_3_ZN_1_FLR_2 ZN RETURN AIR NODE,Air,2
 Node,37,CORRIDOR_POD_1_ZN_1_FLR_1 ZN VAV TERMINAL OUTLET AIR NODE,Air,4
 Node,38,CORRIDOR_POD_1_ZN_1_FLR_1 ZN RETURN AIR NODE,Air,2
 Node,39,CORRIDOR_POD_1_ZN_1_FLR_2 ZN VAV TERMINAL OUTLET AIR NODE,Air,4
 Node,40,CORRIDOR_POD_1_ZN_1_FLR_2 ZN RETURN AIR NODE,Air,2
 Node,41,CORRIDOR_POD_2_ZN_1_FLR_1 ZN VAV TERMINAL OUTLET AIR NODE,Air,4
 Node,42,CORRIDOR_POD_2_ZN_1_FLR_1 ZN RETURN AIR NODE,Air,2
 Node,43,CORRIDOR_POD_2_ZN_1_FLR_2 ZN VAV TERMINAL OUTLET AIR NODE,Air,4
 Node,44,CORRIDOR_POD_2_ZN_1_FLR_2 ZN RETURN AIR NODE,Air,2
 Node,45,CORRIDOR_POD_3_ZN_1_FLR_1 ZN VAV TERMINAL OUTLET AIR NODE,Air,4
 Node,46,CORRIDOR_POD_3_ZN_1_FLR_1 ZN RETURN AIR NODE,Air,2
 Node,47,CORRIDOR_POD_3_ZN_1_FLR_2 ZN VAV TERMINAL OUTLET AIR NODE,Air,4
 Node,48,CORRIDOR_POD_3_ZN_1_FLR_2 ZN RETURN AIR NODE,Air,2
 Node,49,GYM_ZN_1_FLR_1 ZN PSZ-AC_1-5 DIFFUSER OUTLET AIR NODE,Air,4
 Node,50,GYM_ZN_1_FLR_1 ZN RETURN AIR NODE,Air,2
 Node,51,KITCHEN_ZN_1_FLR_1 ZN PSZ-AC_4-8 DIFFUSER OUTLET AIR NODE,Air,4
 Node,52,KITCHEN_ZN_1_FLR_1 ZN EXHAUST FAN INLET AIR NODE,Air,2
 Node,53,KITCHEN_ZN_1_FLR_1 ZN RETURN AIR NODE,Air,2
 Node,54,LIBRARY_MEDIA_CENTER_ZN_1_FLR_2 ZN VAV TERMINAL OUTLET AIR NODE,Air,4
 Node,55,LIBRARY_MEDIA_CENTER_ZN_1_FLR_2 ZN RETURN AIR NODE,Air,2
 Node,56,LOBBY_ZN_1_FLR_1 ZN VAV TERMINAL OUTLET AIR NODE,Air,4
 Node,57,LOBBY_ZN_1_FLR_1 ZN RETURN AIR NODE,Air,2
 Node,58,LOBBY_ZN_1_FLR_2 ZN VAV TERMINAL OUTLET AIR NODE,Air,4
 Node,59,LOBBY_ZN_1_FLR_2 ZN RETURN AIR NODE,Air,2
 Node,60,MAIN_CORRIDOR_ZN_1_FLR_1 ZN VAV TERMINAL OUTLET AIR NODE,Air,4
 Node,61,MAIN_CORRIDOR_ZN_1_FLR_1 ZN RETURN AIR NODE,Air,2
 Node,62,MAIN_CORRIDOR_ZN_1_FLR_2 ZN VAV TERMINAL OUTLET AIR NODE,Air,4
 Node,63,MAIN_CORRIDOR_ZN_1_FLR_2 ZN RETURN AIR NODE,Air,2
 Node,64,MECH_ZN_1_FLR_1 ZN VAV TERMINAL OUTLET AIR NODE,Air,4
 Node,65,MECH_ZN_1_FLR_1 ZN RETURN AIR NODE,Air,2
 Node,66,MECH_ZN_1_FLR_2 ZN VAV TERMINAL OUTLET AIR NODE,Air,4
 Node,67,MECH_ZN_1_FLR_2 ZN RETURN AIR NODE,Air,2
 Node,68,MULT_CLASS_1_POD_1_ZN_1_FLR_1 ZN VAV TERMINAL OUTLET AIR NODE,Air,4
 Node,69,MULT_CLASS_1_POD_1_ZN_1_FLR_1 ZN RETURN AIR NODE,Air,2
 Node,70,MULT_CLASS_1_POD_1_ZN_1_FLR_2 ZN VAV TERMINAL OUTLET AIR NODE,Air,4
 Node,71,MULT_CLASS_1_POD_1_ZN_1_FLR_2 ZN RETURN AIR NODE,Air,2
 Node,72,MULT_CLASS_1_POD_2_ZN_1_FLR_1 ZN VAV TERMINAL OUTLET AIR NODE,Air,4
 Node,73,MULT_CLASS_1_POD_2_ZN_1_FLR_1 ZN RETURN AIR NODE,Air,2
 Node,74,MULT_CLASS_1_POD_2_ZN_1_FLR_2 ZN VAV TERMINAL OUTLET AIR NODE,Air,4
 Node,75,MULT_CLASS_1_POD_2_ZN_1_FLR_2 ZN RETURN AIR NODE,Air,2
 Node,76,MULT_CLASS_1_POD_3_ZN_1_FLR_1 ZN VAV TERMINAL OUTLET AIR NODE,Air,4
 Node,77,MULT_CLASS_1_POD_3_ZN_1_FLR_1 ZN RETURN AIR NODE,Air,2
 Node,78,MULT_CLASS_1_POD_3_ZN_1_FLR_2 ZN VAV TERMINAL OUTLET AIR NODE,Air,4
 Node,79,MULT_CLASS_1_POD_3_ZN_1_FLR_2 ZN RETURN AIR NODE,Air,2
 Node,80,MULT_CLASS_2_POD_1_ZN_1_FLR_1 ZN VAV TERMINAL OUTLET AIR NODE,Air,4
 Node,81,MULT_CLASS_2_POD_1_ZN_1_FLR_1 ZN RETURN AIR NODE,Air,2
 Node,82,MULT_CLASS_2_POD_1_ZN_1_FLR_2 ZN VAV TERMINAL OUTLET AIR NODE,Air,4
 Node,83,MULT_CLASS_2_POD_1_ZN_1_FLR_2 ZN RETURN AIR NODE,Air,2
 Node,84,MULT_CLASS_2_POD_2_ZN_1_FLR_1 ZN VAV TERMINAL OUTLET AIR NODE,Air,4
 Node,85,MULT_CLASS_2_POD_2_ZN_1_FLR_1 ZN RETURN AIR NODE,Air,2
 Node,86,MULT_CLASS_2_POD_2_ZN_1_FLR_2 ZN VAV TERMINAL OUTLET AIR NODE,Air,4
 Node,87,MULT_CLASS_2_POD_2_ZN_1_FLR_2 ZN RETURN AIR NODE,Air,2
 Node,88,MULT_CLASS_2_POD_3_ZN_1_FLR_1 ZN VAV TERMINAL OUTLET AIR NODE,Air,4
 Node,89,MULT_CLASS_2_POD_3_ZN_1_FLR_1 ZN RETURN AIR NODE,Air,2
 Node,90,MULT_CLASS_2_POD_3_ZN_1_FLR_2 ZN VAV TERMINAL OUTLET AIR NODE,Air,4
 Node,91,MULT_CLASS_2_POD_3_ZN_1_FLR_2 ZN RETURN AIR NODE,Air,2
 Node,92,OFFICES_ZN_1_FLR_1 ZN VAV TERMINAL OUTLET AIR NODE,Air,4
 Node,93,OFFICES_ZN_1_FLR_1 ZN RETURN AIR NODE,Air,2
 Node,94,OFFICES_ZN_1_FLR_2 ZN VAV TERMINAL OUTLET AIR NODE,Air,4
 Node,95,OFFICES_ZN_1_FLR_2 ZN RETURN AIR NODE,Air,2
 Node,96,AUDITORIUM_ZN_1_FLR_1 ZN PSZ-AC_3-7 SUPPLY OUTLET NODE,Air,12
 Node,97,AUDITORIUM_ZN_1_FLR_1 ZN PSZ-AC_3-7 DEMAND INLET NODE,Air,3
 Node,98,AUX_GYM_ZN_1_FLR_1 ZN PSZ-AC_2-6 SUPPLY OUTLET NODE,Air,12
 Node,99,AUX_GYM_ZN_1_FLR_1 ZN PSZ-AC_2-6 DEMAND INLET NODE,Air,3
 Node,100,CAFETERIA_ZN_1_FLR_1 ZN PSZ-AC_5-9 SUPPLY OUTLET NODE,Air,12
 Node,101,CAFETERIA_ZN_1_FLR_1 ZN PSZ-AC_5-9 DEMAND INLET NODE,Air,3
 Node,102,GYM_ZN_1_FLR_1 ZN PSZ-AC_1-5 SUPPLY OUTLET NODE,Air,12
 Node,103,GYM_ZN_1_FLR_1 ZN PSZ-AC_1-5 DEMAND INLET NODE,Air,3
 Node,104,KITCHEN_ZN_1_FLR_1 ZN PSZ-AC_4-8 SUPPLY OUTLET NODE,Air,12
 Node,105,KITCHEN_ZN_1_FLR_1 ZN PSZ-AC_4-8 DEMAND INLET NODE,Air,3
 Node,106,VAV_OTHER SUPPLY OUTLET NODE,Air,10
 Node,107,VAV_OTHER DEMAND INLET NODE,Air,3
 Node,108,VAV_POD_1 SUPPLY OUTLET NODE,Air,10
 Node,109,VAV_POD_1 DEMAND INLET NODE,Air,3
 Node,110,VAV_POD_2 SUPPLY OUTLET NODE,Air,10
 Node,111,VAV_POD_2 DEMAND INLET NODE,Air,3
 Node,112,VAV_POD_3 SUPPLY OUTLET NODE,Air,10
 Node,113,VAV_POD_3 DEMAND INLET NODE,Air,3
 Node,114,AUDITORIUM_ZN_1_FLR_1 ZN PSZ-AC_3-7 SUPPLY INLET NODE,Air,3
 Node,115,AUDITORIUM_ZN_1_FLR_1 ZN PSZ-AC_3-7 MIXED AIR NODE,Air,6
 Node,116,AUDITORIUM_ZN_1_FLR_1 ZN PSZ-AC_3-7 2SPD DX AC CLG COIL 704KBTU/HR 9.8EER OUTLET AIR NODE,Air,6
 Node,117,AUDITORIUM_ZN_1_FLR_1 ZN PSZ-AC_3-7 GAS HTG COIL OUTLET AIR NODE,Air,5
 Node,118,AUDITORIUM_ZN_1_FLR_1 ZN PSZ-AC_3-7 NO HEAT OUTLET AIR NODE,Air,9
 Node,119,AUX_GYM_ZN_1_FLR_1 ZN PSZ-AC_2-6 SUPPLY INLET NODE,Air,3
 Node,120,AUX_GYM_ZN_1_FLR_1 ZN PSZ-AC_2-6 MIXED AIR NODE,Air,6
 Node,121,AUX_GYM_ZN_1_FLR_1 ZN PSZ-AC_2-6 2SPD DX AC CLG COIL 303KBTU/HR 9.8EER OUTLET AIR NODE,Air,6
 Node,122,AUX_GYM_ZN_1_FLR_1 ZN PSZ-AC_2-6 GAS HTG COIL OUTLET AIR NODE,Air,5
 Node,123,AUX_GYM_ZN_1_FLR_1 ZN PSZ-AC_2-6 NO HEAT OUTLET AIR NODE,Air,9
 Node,124,CAFETERIA_ZN_1_FLR_1 ZN PSZ-AC_5-9 SUPPLY INLET NODE,Air,3
 Node,125,CAFETERIA_ZN_1_FLR_1 ZN PSZ-AC_5-9 MIXED AIR NODE,Air,6
 Node,126,CAFETERIA_ZN_1_FLR_1 ZN PSZ-AC_5-9 2SPD DX AC CLG COIL 366KBTU/HR 9.8EER OUTLET AIR NODE,Air,6
 Node,127,CAFETERIA_ZN_1_FLR_1 ZN PSZ-AC_5-9 GAS HTG COIL OUTLET AIR NODE,Air,5
 Node,128,CAFETERIA_ZN_1_FLR_1 ZN PSZ-AC_5-9 NO HEAT OUTLET AIR NODE,Air,9
 Node,129,GYM_ZN_1_FLR_1 ZN PSZ-AC_1-5 SUPPLY INLET NODE,Air,3
 Node,130,GYM_ZN_1_FLR_1 ZN PSZ-AC_1-5 MIXED AIR NODE,Air,6
 Node,131,GYM_ZN_1_FLR_1 ZN PSZ-AC_1-5 2SPD DX AC CLG COIL 421KBTU/HR 9.8EER OUTLET AIR NODE,Air,6
 Node,132,GYM_ZN_1_FLR_1 ZN PSZ-AC_1-5 GAS HTG COIL OUTLET AIR NODE,Air,5
 Node,133,GYM_ZN_1_FLR_1 ZN PSZ-AC_1-5 NO HEAT OUTLET AIR NODE,Air,9
 Node,134,KITCHEN_ZN_1_FLR_1 ZN PSZ-AC_4-8 SUPPLY INLET NODE,Air,3
 Node,135,KITCHEN_ZN_1_FLR_1 ZN PSZ-AC_4-8 MIXED AIR NODE,Air,6
 Node,136,KITCHEN_ZN_1_FLR_1 ZN PSZ-AC_4-8 2SPD DX AC CLG COIL 103KBTU/HR 11.0EER OUTLET AIR NODE,Air,6
 Node,137,KITCHEN_ZN_1_FLR_1 ZN PSZ-AC_4-8 GAS HTG COIL OUTLET AIR NODE,Air,5
 Node,138,KITCHEN_ZN_1_FLR_1 ZN PSZ-AC_4-8 NO HEAT OUTLET AIR NODE,Air,9
 Node,139,VAV_OTHER SUPPLY INLET NODE,Air,3
 Node,140,VAV_OTHER MIXED AIR NODE,Air,5
 Node,141,VAV_OTHER CLG COIL OUTLET AIR NODE,Air,5
 Node,142,VAV_OTHER MAIN HTG COIL OUTLET AIR NODE,Air,8
 Node,143,VAV_POD_1 SUPPLY INLET NODE,Air,3
 Node,144,VAV_POD_1 MIXED AIR NODE,Air,5
 Node,145,VAV_POD_1 CLG COIL OUTLET AIR NODE,Air,5
 Node,146,VAV_POD_1 MAIN HTG COIL OUTLET AIR NODE,Air,8
 Node,147,VAV_POD_2 SUPPLY INLET NODE,Air,3
 Node,148,VAV_POD_2 MIXED AIR NODE,Air,5
 Node,149,VAV_POD_2 CLG COIL OUTLET AIR NODE,Air,5
 Node,150,VAV_POD_2 MAIN HTG COIL OUTLET AIR NODE,Air,8
 Node,151,VAV_POD_3 SUPPLY INLET NODE,Air,3
 Node,152,VAV_POD_3 MIXED AIR NODE,Air,5
 Node,153,VAV_POD_3 CLG COIL OUTLET AIR NODE,Air,5
 Node,154,VAV_POD_3 MAIN HTG COIL OUTLET AIR NODE,Air,8
 Node,155,CHILLED WATER LOOP SUPPLY INLET NODE,Water,2
 Node,156,CHILLED WATER LOOP PRIMARY PUMP OUTLET WATER NODE,Water,1
 Node,157,90.1-2010 AIRCOOLED WITHCONDENSER  CHILLER 0 273TONS 1.3KW/TON SUPPLY INLET WATER NODE,Water,1
 Node,158,90.1-2010 AIRCOOLED WITHCONDENSER  CHILLER 0 273TONS 1.3KW/TON SUPPLY OUTLET WATER NODE,Water,1
 Node,159,CHILLED WATER LOOP CHILLER BYPASS INLET WATER NODE,Water,1
 Node,160,CHILLED WATER LOOP CHILLER BYPASS OUTLET WATER NODE,Water,1
 Node,161,CHILLED WATER LOOP SUPPLY OUTLET INLET WATER NODE,Water,1
 Node,162,CHILLED WATER LOOP SUPPLY OUTLET NODE,Water,4
 Node,163,CHILLED WATER LOOP DEMAND INLET NODE,Water,2
 Node,164,CHILLED WATER LOOP SECONDARY PUMP INLET WATER NODE,Water,3
 Node,165,CHILLED WATER LOOP SECONDARY PUMP OUTLET WATER NODE,Water,1
 Node,166,CHILLED WATER LOOP COIL BYPASS INLET WATER NODE,Water,1
 Node,167,CHILLED WATER LOOP COIL BYPASS OUTLET WATER NODE,Water,1
 Node,168,VAV_POD_1 CLG COIL INLET WATER NODE,Water,2
 Node,169,VAV_POD_1 CLG COIL OUTLET WATER NODE,Water,1
 Node,170,VAV_POD_2 CLG COIL INLET WATER NODE,Water,2
 Node,171,VAV_POD_2 CLG COIL OUTLET WATER NODE,Water,1
 Node,172,VAV_POD_3 CLG COIL INLET WATER NODE,Water,2
 Node,173,VAV_POD_3 CLG COIL OUTLET WATER NODE,Water,1
 Node,174,VAV_OTHER CLG COIL INLET WATER NODE,Water,2
 Node,175,VAV_OTHER CLG COIL OUTLET WATER NODE,Water,1
 Node,176,CHILLED WATER LOOP DEMAND BYPASS PIPE INLET NODE,Water,1
 Node,177,CHILLED WATER LOOP DEMAND BYPASS PIPE OUTLET NODE,Water,1
 Node,178,CHILLED WATER LOOP DEMAND OUTLET INLET WATER NODE,Water,1
 Node,179,CHILLED WATER LOOP DEMAND OUTLET NODE,Water,2
 Node,180,HOT WATER LOOP SUPPLY INLET NODE,Water,2
 Node,181,HOT WATER LOOP PUMP OUTLET WATER NODE,Water,1
 Node,182,BOILER 1724KBTU/HR 0.8 THERMAL EFF INLET WATER NODE,Water,1
 Node,183,BOILER 1724KBTU/HR 0.8 THERMAL EFF OUTLET WATER NODE,Water,1
 Node,184,HOT WATER LOOP SUPPLY EQUIPMENT BYPASS INLET WATER NODE,Water,1
 Node,185,HOT WATER LOOP SUPPLY EQUIPMENT BYPASS OUTLET WATER NODE,Water,1
 Node,186,HOT WATER LOOP SUPPLY OUTLET INLET WATER NODE,Water,1
 Node,187,HOT WATER LOOP SUPPLY OUTLET NODE,Water,4
 Node,188,HOT WATER LOOP DEMAND INLET NODE,Water,2
 Node,189,HOT WATER LOOP DEMAND INLET OUTLET WATER NODE,Water,1
 Node,190,HOT WATER LOOP COIL BYPASS INLET WATER NODE,Water,1
 Node,191,HOT WATER LOOP COIL BYPASS OUTLET WATER NODE,Water,1
 Node,192,VAV_POD_1 MAIN HTG COIL INLET WATER NODE,Water,2
 Node,193,VAV_POD_1 MAIN HTG COIL OUTLET WATER NODE,Water,1
 Node,194,CORNER_CLASS_1_POD_1_ZN_1_FLR_1 ZN REHEAT COIL INLET WATER NODE,Water,1
 Node,195,CORNER_CLASS_1_POD_1_ZN_1_FLR_1 ZN REHEAT COIL OUTLET WATER NODE,Water,1
 Node,196,CORNER_CLASS_1_POD_1_ZN_1_FLR_2 ZN REHEAT COIL INLET WATER NODE,Water,1
 Node,197,CORNER_CLASS_1_POD_1_ZN_1_FLR_2 ZN REHEAT COIL OUTLET WATER NODE,Water,1
 Node,198,MULT_CLASS_1_POD_1_ZN_1_FLR_1 ZN REHEAT COIL INLET WATER NODE,Water,1
 Node,199,MULT_CLASS_1_POD_1_ZN_1_FLR_1 ZN REHEAT COIL OUTLET WATER NODE,Water,1
 Node,200,MULT_CLASS_1_POD_1_ZN_1_FLR_2 ZN REHEAT COIL INLET WATER NODE,Water,1
 Node,201,MULT_CLASS_1_POD_1_ZN_1_FLR_2 ZN REHEAT COIL OUTLET WATER NODE,Water,1
 Node,202,CORRIDOR_POD_1_ZN_1_FLR_1 ZN REHEAT COIL INLET WATER NODE,Water,1
 Node,203,CORRIDOR_POD_1_ZN_1_FLR_1 ZN REHEAT COIL OUTLET WATER NODE,Water,1
 Node,204,CORRIDOR_POD_1_ZN_1_FLR_2 ZN REHEAT COIL INLET WATER NODE,Water,1
 Node,205,CORRIDOR_POD_1_ZN_1_FLR_2 ZN REHEAT COIL OUTLET WATER NODE,Water,1
 Node,206,CORNER_CLASS_2_POD_1_ZN_1_FLR_1 ZN REHEAT COIL INLET WATER NODE,Water,1
 Node,207,CORNER_CLASS_2_POD_1_ZN_1_FLR_1 ZN REHEAT COIL OUTLET WATER NODE,Water,1
 Node,208,CORNER_CLASS_2_POD_1_ZN_1_FLR_2 ZN REHEAT COIL INLET WATER NODE,Water,1
 Node,209,CORNER_CLASS_2_POD_1_ZN_1_FLR_2 ZN REHEAT COIL OUTLET WATER NODE,Water,1
 Node,210,MULT_CLASS_2_POD_1_ZN_1_FLR_1 ZN REHEAT COIL INLET WATER NODE,Water,1
 Node,211,MULT_CLASS_2_POD_1_ZN_1_FLR_1 ZN REHEAT COIL OUTLET WATER NODE,Water,1
 Node,212,MULT_CLASS_2_POD_1_ZN_1_FLR_2 ZN REHEAT COIL INLET WATER NODE,Water,1
 Node,213,MULT_CLASS_2_POD_1_ZN_1_FLR_2 ZN REHEAT COIL OUTLET WATER NODE,Water,1
 Node,214,VAV_POD_2 MAIN HTG COIL INLET WATER NODE,Water,2
 Node,215,VAV_POD_2 MAIN HTG COIL OUTLET WATER NODE,Water,1
 Node,216,CORNER_CLASS_1_POD_2_ZN_1_FLR_1 ZN REHEAT COIL INLET WATER NODE,Water,1
 Node,217,CORNER_CLASS_1_POD_2_ZN_1_FLR_1 ZN REHEAT COIL OUTLET WATER NODE,Water,1
 Node,218,CORNER_CLASS_1_POD_2_ZN_1_FLR_2 ZN REHEAT COIL INLET WATER NODE,Water,1
 Node,219,CORNER_CLASS_1_POD_2_ZN_1_FLR_2 ZN REHEAT COIL OUTLET WATER NODE,Water,1
 Node,220,MULT_CLASS_1_POD_2_ZN_1_FLR_1 ZN REHEAT COIL INLET WATER NODE,Water,1
 Node,221,MULT_CLASS_1_POD_2_ZN_1_FLR_1 ZN REHEAT COIL OUTLET WATER NODE,Water,1
 Node,222,MULT_CLASS_1_POD_2_ZN_1_FLR_2 ZN REHEAT COIL INLET WATER NODE,Water,1
 Node,223,MULT_CLASS_1_POD_2_ZN_1_FLR_2 ZN REHEAT COIL OUTLET WATER NODE,Water,1
 Node,224,CORRIDOR_POD_2_ZN_1_FLR_1 ZN REHEAT COIL INLET WATER NODE,Water,1
 Node,225,CORRIDOR_POD_2_ZN_1_FLR_1 ZN REHEAT COIL OUTLET WATER NODE,Water,1
 Node,226,CORRIDOR_POD_2_ZN_1_FLR_2 ZN REHEAT COIL INLET WATER NODE,Water,1
 Node,227,CORRIDOR_POD_2_ZN_1_FLR_2 ZN REHEAT COIL OUTLET WATER NODE,Water,1
 Node,228,CORNER_CLASS_2_POD_2_ZN_1_FLR_1 ZN REHEAT COIL INLET WATER NODE,Water,1
 Node,229,CORNER_CLASS_2_POD_2_ZN_1_FLR_1 ZN REHEAT COIL OUTLET WATER NODE,Water,1
 Node,230,CORNER_CLASS_2_POD_2_ZN_1_FLR_2 ZN REHEAT COIL INLET WATER NODE,Water,1
 Node,231,CORNER_CLASS_2_POD_2_ZN_1_FLR_2 ZN REHEAT COIL OUTLET WATER NODE,Water,1
 Node,232,MULT_CLASS_2_POD_2_ZN_1_FLR_1 ZN REHEAT COIL INLET WATER NODE,Water,1
 Node,233,MULT_CLASS_2_POD_2_ZN_1_FLR_1 ZN REHEAT COIL OUTLET WATER NODE,Water,1
 Node,234,MULT_CLASS_2_POD_2_ZN_1_FLR_2 ZN REHEAT COIL INLET WATER NODE,Water,1
 Node,235,MULT_CLASS_2_POD_2_ZN_1_FLR_2 ZN REHEAT COIL OUTLET WATER NODE,Water,1
 Node,236,VAV_POD_3 MAIN HTG COIL INLET WATER NODE,Water,2
 Node,237,VAV_POD_3 MAIN HTG COIL OUTLET WATER NODE,Water,1
 Node,238,CORNER_CLASS_1_POD_3_ZN_1_FLR_1 ZN REHEAT COIL INLET WATER NODE,Water,1
 Node,239,CORNER_CLASS_1_POD_3_ZN_1_FLR_1 ZN REHEAT COIL OUTLET WATER NODE,Water,1
 Node,240,CORNER_CLASS_1_POD_3_ZN_1_FLR_2 ZN REHEAT COIL INLET WATER NODE,Water,1
 Node,241,CORNER_CLASS_1_POD_3_ZN_1_FLR_2 ZN REHEAT COIL OUTLET WATER NODE,Water,1
 Node,242,MULT_CLASS_1_POD_3_ZN_1_FLR_1 ZN REHEAT COIL INLET WATER NODE,Water,1
 Node,243,MULT_CLASS_1_POD_3_ZN_1_FLR_1 ZN REHEAT COIL OUTLET WATER NODE,Water,1
 Node,244,MULT_CLASS_1_POD_3_ZN_1_FLR_2 ZN REHEAT COIL INLET WATER NODE,Water,1
 Node,245,MULT_CLASS_1_POD_3_ZN_1_FLR_2 ZN REHEAT COIL OUTLET WATER NODE,Water,1
 Node,246,CORRIDOR_POD_3_ZN_1_FLR_1 ZN REHEAT COIL INLET WATER NODE,Water,1
 Node,247,CORRIDOR_POD_3_ZN_1_FLR_1 ZN REHEAT COIL OUTLET WATER NODE,Water,1
 Node,248,CORRIDOR_POD_3_ZN_1_FLR_2 ZN REHEAT COIL INLET WATER NODE,Water,1
 Node,249,CORRIDOR_POD_3_ZN_1_FLR_2 ZN REHEAT COIL OUTLET WATER NODE,Water,1
 Node,250,CORNER_CLASS_2_POD_3_ZN_1_FLR_1 ZN REHEAT COIL INLET WATER NODE,Water,1
 Node,251,CORNER_CLASS_2_POD_3_ZN_1_FLR_1 ZN REHEAT COIL OUTLET WATER NODE,Water,1
 Node,252,CORNER_CLASS_2_POD_3_ZN_1_FLR_2 ZN REHEAT COIL INLET WATER NODE,Water,1
 Node,253,CORNER_CLASS_2_POD_3_ZN_1_FLR_2 ZN REHEAT COIL OUTLET WATER NODE,Water,1
 Node,254,MULT_CLASS_2_POD_3_ZN_1_FLR_1 ZN REHEAT COIL INLET WATER NODE,Water,1
 Node,255,MULT_CLASS_2_POD_3_ZN_1_FLR_1 ZN REHEAT COIL OUTLET WATER NODE,Water,1
 Node,256,MULT_CLASS_2_POD_3_ZN_1_FLR_2 ZN REHEAT COIL INLET WATER NODE,Water,1
 Node,257,MULT_CLASS_2_POD_3_ZN_1_FLR_2 ZN REHEAT COIL OUTLET WATER NODE,Water,1
 Node,258,VAV_OTHER MAIN HTG COIL INLET WATER NODE,Water,2
 Node,259,VAV_OTHER MAIN HTG COIL OUTLET WATER NODE,Water,1
 Node,260,MAIN_CORRIDOR_ZN_1_FLR_1 ZN REHEAT COIL INLET WATER NODE,Water,1
 Node,261,MAIN_CORRIDOR_ZN_1_FLR_1 ZN REHEAT COIL OUTLET WATER NODE,Water,1
 Node,262,MAIN_CORRIDOR_ZN_1_FLR_2 ZN REHEAT COIL INLET WATER NODE,Water,1
 Node,263,MAIN_CORRIDOR_ZN_1_FLR_2 ZN REHEAT COIL OUTLET WATER NODE,Water,1
 Node,264,LOBBY_ZN_1_FLR_1 ZN REHEAT COIL INLET WATER NODE,Water,1
 Node,265,LOBBY_ZN_1_FLR_1 ZN REHEAT COIL OUTLET WATER NODE,Water,1
 Node,266,LOBBY_ZN_1_FLR_2 ZN REHEAT COIL INLET WATER NODE,Water,1
 Node,267,LOBBY_ZN_1_FLR_2 ZN REHEAT COIL OUTLET WATER NODE,Water,1
 Node,268,BATHROOMS_ZN_1_FLR_1 ZN REHEAT COIL INLET WATER NODE,Water,1
 Node,269,BATHROOMS_ZN_1_FLR_1 ZN REHEAT COIL OUTLET WATER NODE,Water,1
 Node,270,BATHROOMS_ZN_1_FLR_2 ZN REHEAT COIL INLET WATER NODE,Water,1
 Node,271,BATHROOMS_ZN_1_FLR_2 ZN REHEAT COIL OUTLET WATER NODE,Water,1
 Node,272,OFFICES_ZN_1_FLR_1 ZN REHEAT COIL INLET WATER NODE,Water,1
 Node,273,OFFICES_ZN_1_FLR_1 ZN REHEAT COIL OUTLET WATER NODE,Water,1
 Node,274,OFFICES_ZN_1_FLR_2 ZN REHEAT COIL INLET WATER NODE,Water,1
 Node,275,OFFICES_ZN_1_FLR_2 ZN REHEAT COIL OUTLET WATER NODE,Water,1
 Node,276,LIBRARY_MEDIA_CENTER_ZN_1_FLR_2 ZN REHEAT COIL INLET WATER NODE,Water,1
 Node,277,LIBRARY_MEDIA_CENTER_ZN_1_FLR_2 ZN REHEAT COIL OUTLET WATER NODE,Water,1
 Node,278,MECH_ZN_1_FLR_1 ZN REHEAT COIL INLET WATER NODE,Water,1
 Node,279,MECH_ZN_1_FLR_1 ZN REHEAT COIL OUTLET WATER NODE,Water,1
 Node,280,MECH_ZN_1_FLR_2 ZN REHEAT COIL INLET WATER NODE,Water,1
 Node,281,MECH_ZN_1_FLR_2 ZN REHEAT COIL OUTLET WATER NODE,Water,1
 Node,282,HOT WATER LOOP DEMAND BYPASS PIPE INLET NODE,Water,1
 Node,283,HOT WATER LOOP DEMAND BYPASS PIPE OUTLET NODE,Water,1
 Node,284,HOT WATER LOOP DEMAND OUTLET INLET WATER NODE,Water,1
 Node,285,HOT WATER LOOP DEMAND OUTLET NODE,Water,2
 Node,286,MAIN SERVICE WATER LOOP SUPPLY INLET NODE,Water,2
 Node,287,MAIN SERVICE WATER LOOP CIRCULATOR PUMP OUTLET WATER NODE,Water,1
 Node,288,600GAL NATURAL GAS WATER HEATER - 600KBTU/HR 0.803 THERM EFF SUPPLY INLET WATER NODE,Water,1
 Node,289,600GAL NATURAL GAS WATER HEATER - 600KBTU/HR 0.803 THERM EFF SUPPLY OUTLET WATER NODE,Water,1
 Node,290,PIPE ADIABATIC 1 INLET WATER NODE,Water,1
 Node,291,PIPE ADIABATIC 1 OUTLET WATER NODE,Water,1
 Node,292,PIPE ADIABATIC 3 INLET WATER NODE,Water,1
 Node,293,MAIN SERVICE WATER LOOP SUPPLY OUTLET NODE,Water,4
 Node,294,MAIN SERVICE WATER LOOP DEMAND INLET NODE,Water,2
 Node,295,MAIN SERVICE WATER LOOP DEMAND INLET PIPE NODE,Water,1
 Node,296,PIPE ADIABATIC 2 INLET WATER NODE,Water,1
 Node,297,PIPE ADIABATIC 2 OUTLET WATER NODE,Water,1
 Node,298,MAIN WUC 7.63GPM AT 140F INLET WATER NODE,Water,1
 Node,299,MAIN WUC 7.63GPM AT 140F OUTLET WATER NODE,Water,1
 Node,300,HX FOR BOOSTER WATER HEATING DEMAND INLET WATER NODE,Water,1
 Node,301,MAINS WATER MAKEUP FOR SWH BOOSTER INLET WATER NODE,Water,3
 Node,302,MAINS WATER MAKEUP FOR SWH BOOSTER OUTLET WATER NODE,Water,1
 Node,303,MAIN SERVICE WATER LOOP DEMAND BYPASS PIPE INLET NODE,Water,1
 Node,304,MAIN SERVICE WATER LOOP DEMAND BYPASS PIPE OUTLET NODE,Water,1
 Node,305,PIPE ADIABATIC 4 INLET WATER NODE,Water,1
 Node,306,MAIN SERVICE WATER LOOP DEMAND OUTLET NODE,Water,2
 Node,307,SERVICE WATER LOOP SUPPLY INLET NODE,Water,2
 Node,308,BOOSTER WATER LOOP PUMP INLET WATER NODE,Water,3
 Node,309,BOOSTER WATER LOOP PUMP OUTLET WATER NODE,Water,1
 Node,310,6.0GAL ELECTRICITY BOOSTER WATER HEATER - 48KBTU/HR 1.0 THERM EFF SUPPLY INLET WATER NODE,Water,1
 Node,311,6.0GAL ELECTRICITY BOOSTER WATER HEATER - 48KBTU/HR 1.0 THERM EFF SUPPLY OUTLET WATER NODE,Water,1
 Node,312,PIPE ADIABATIC 5 INLET WATER NODE,Water,1
 Node,313,PIPE ADIABATIC 5 OUTLET WATER NODE,Water,1
 Node,314,PIPE ADIABATIC 7 INLET WATER NODE,Water,1
 Node,315,SERVICE WATER LOOP SUPPLY OUTLET NODE,Water,5
 Node,316,SERVICE WATER LOOP DEMAND INLET NODE,Water,2
 Node,317,PIPE ADIABATIC 8 OUTLET WATER NODE,Water,1
 Node,318,PIPE ADIABATIC 6 INLET WATER NODE,Water,1
 Node,319,PIPE ADIABATIC 6 OUTLET WATER NODE,Water,1
 Node,320,WATER USE CONNECTIONS 1 INLET WATER NODE,Water,1
 Node,321,WATER USE CONNECTIONS 1 OUTLET WATER NODE,Water,1
 Node,322,SERVICE WATER LOOP DEMAND BYPASS PIPE INLET NODE,Water,1
 Node,323,SERVICE WATER LOOP DEMAND BYPASS PIPE OUTLET NODE,Water,1
 Node,324,PIPE ADIABATIC 9 INLET WATER NODE,Water,1
 Node,325,SERVICE WATER LOOP DEMAND OUTLET NODE,Water,2
 Node,326,AUDITORIUM_ZN_1_FLR_1 ZN ZONE AIR NODE,Air,1
 Node,327,AUX_GYM_ZN_1_FLR_1 ZN ZONE AIR NODE,Air,1
 Node,328,BATHROOMS_ZN_1_FLR_1 ZN ZONE AIR NODE,Air,0
 Node,329,BATHROOMS_ZN_1_FLR_2 ZN ZONE AIR NODE,Air,0
 Node,330,CAFETERIA_ZN_1_FLR_1 ZN ZONE AIR NODE,Air,1
 Node,331,CORNER_CLASS_1_POD_1_ZN_1_FLR_1 ZN ZONE AIR NODE,Air,0
 Node,332,CORNER_CLASS_1_POD_1_ZN_1_FLR_2 ZN ZONE AIR NODE,Air,0
 Node,333,CORNER_CLASS_1_POD_2_ZN_1_FLR_1 ZN ZONE AIR NODE,Air,0
 Node,334,CORNER_CLASS_1_POD_2_ZN_1_FLR_2 ZN ZONE AIR NODE,Air,0
 Node,335,CORNER_CLASS_1_POD_3_ZN_1_FLR_1 ZN ZONE AIR NODE,Air,0
 Node,336,CORNER_CLASS_1_POD_3_ZN_1_FLR_2 ZN ZONE AIR NODE,Air,0
 Node,337,CORNER_CLASS_2_POD_1_ZN_1_FLR_1 ZN ZONE AIR NODE,Air,0
 Node,338,CORNER_CLASS_2_POD_1_ZN_1_FLR_2 ZN ZONE AIR NODE,Air,0
 Node,339,CORNER_CLASS_2_POD_2_ZN_1_FLR_1 ZN ZONE AIR NODE,Air,0
 Node,340,CORNER_CLASS_2_POD_2_ZN_1_FLR_2 ZN ZONE AIR NODE,Air,0
 Node,341,CORNER_CLASS_2_POD_3_ZN_1_FLR_1 ZN ZONE AIR NODE,Air,0
 Node,342,CORNER_CLASS_2_POD_3_ZN_1_FLR_2 ZN ZONE AIR NODE,Air,0
 Node,343,CORRIDOR_POD_1_ZN_1_FLR_1 ZN ZONE AIR NODE,Air,0
 Node,344,CORRIDOR_POD_1_ZN_1_FLR_2 ZN ZONE AIR NODE,Air,0
 Node,345,CORRIDOR_POD_2_ZN_1_FLR_1 ZN ZONE AIR NODE,Air,0
 Node,346,CORRIDOR_POD_2_ZN_1_FLR_2 ZN ZONE AIR NODE,Air,0
 Node,347,CORRIDOR_POD_3_ZN_1_FLR_1 ZN ZONE AIR NODE,Air,0
 Node,348,CORRIDOR_POD_3_ZN_1_FLR_2 ZN ZONE AIR NODE,Air,0
 Node,349,GYM_ZN_1_FLR_1 ZN ZONE AIR NODE,Air,1
 Node,350,KITCHEN_ZN_1_FLR_1 ZN ZONE AIR NODE,Air,1
 Node,351,LIBRARY_MEDIA_CENTER_ZN_1_FLR_2 ZN ZONE AIR NODE,Air,0
 Node,352,LOBBY_ZN_1_FLR_1 ZN ZONE AIR NODE,Air,0
 Node,353,LOBBY_ZN_1_FLR_2 ZN ZONE AIR NODE,Air,0
 Node,354,MAIN_CORRIDOR_ZN_1_FLR_1 ZN ZONE AIR NODE,Air,0
 Node,355,MAIN_CORRIDOR_ZN_1_FLR_2 ZN ZONE AIR NODE,Air,0
 Node,356,MECH_ZN_1_FLR_1 ZN ZONE AIR NODE,Air,0
 Node,357,MECH_ZN_1_FLR_2 ZN ZONE AIR NODE,Air,0
 Node,358,MULT_CLASS_1_POD_1_ZN_1_FLR_1 ZN ZONE AIR NODE,Air,0
 Node,359,MULT_CLASS_1_POD_1_ZN_1_FLR_2 ZN ZONE AIR NODE,Air,0
 Node,360,MULT_CLASS_1_POD_2_ZN_1_FLR_1 ZN ZONE AIR NODE,Air,0
 Node,361,MULT_CLASS_1_POD_2_ZN_1_FLR_2 ZN ZONE AIR NODE,Air,0
 Node,362,MULT_CLASS_1_POD_3_ZN_1_FLR_1 ZN ZONE AIR NODE,Air,0
 Node,363,MULT_CLASS_1_POD_3_ZN_1_FLR_2 ZN ZONE AIR NODE,Air,0
 Node,364,MULT_CLASS_2_POD_1_ZN_1_FLR_1 ZN ZONE AIR NODE,Air,0
 Node,365,MULT_CLASS_2_POD_1_ZN_1_FLR_2 ZN ZONE AIR NODE,Air,0
 Node,366,MULT_CLASS_2_POD_2_ZN_1_FLR_1 ZN ZONE AIR NODE,Air,0
 Node,367,MULT_CLASS_2_POD_2_ZN_1_FLR_2 ZN ZONE AIR NODE,Air,0
 Node,368,MULT_CLASS_2_POD_3_ZN_1_FLR_1 ZN ZONE AIR NODE,Air,0
 Node,369,MULT_CLASS_2_POD_3_ZN_1_FLR_2 ZN ZONE AIR NODE,Air,0
 Node,370,OFFICES_ZN_1_FLR_1 ZN ZONE AIR NODE,Air,0
 Node,371,OFFICES_ZN_1_FLR_2 ZN ZONE AIR NODE,Air,0
 Node,372,AUDITORIUM_ZN_1_FLR_1 ZN PSZ-AC_3-7 DEMAND OUTLET NODE,Air,2
 Node,373,AUX_GYM_ZN_1_FLR_1 ZN PSZ-AC_2-6 DEMAND OUTLET NODE,Air,2
 Node,374,CAFETERIA_ZN_1_FLR_1 ZN PSZ-AC_5-9 DEMAND OUTLET NODE,Air,2
 Node,375,GYM_ZN_1_FLR_1 ZN PSZ-AC_1-5 DEMAND OUTLET NODE,Air,2
 Node,376,KITCHEN_ZN_1_FLR_1 ZN PSZ-AC_4-8 DEMAND OUTLET NODE,Air,2
 Node,377,VAV_OTHER DEMAND OUTLET NODE,Air,2
 Node,378,VAV_POD_1 DEMAND OUTLET NODE,Air,2
 Node,379,VAV_POD_2 DEMAND OUTLET NODE,Air,2
 Node,380,VAV_POD_3 DEMAND OUTLET NODE,Air,2
 Node,381,AUDITORIUM_ZN_1_FLR_1 ZN PSZ-AC_3-7 OUTDOOR AIR NODE,Air,2
 Node,382,AUX_GYM_ZN_1_FLR_1 ZN PSZ-AC_2-6 OUTDOOR AIR NODE,Air,2
 Node,383,CAFETERIA_ZN_1_FLR_1 ZN PSZ-AC_5-9 OUTDOOR AIR NODE,Air,2
 Node,384,GYM_ZN_1_FLR_1 ZN PSZ-AC_1-5 OUTDOOR AIR NODE,Air,2
 Node,385,KITCHEN_ZN_1_FLR_1 ZN PSZ-AC_4-8 OUTDOOR AIR NODE,Air,2
 Node,386,VAV_OTHER OUTDOOR AIR NODE,Air,2
 Node,387,VAV_POD_1 OUTDOOR AIR NODE,Air,2
 Node,388,VAV_POD_2 OUTDOOR AIR NODE,Air,2
 Node,389,VAV_POD_3 OUTDOOR AIR NODE,Air,2
 Node,390,90.1-2010 AIRCOOLED WITHCONDENSER  CHILLER 0 273TONS 1.3KW/TON INLET NODE FOR CONDENSER,Air,1
 Node,391,MODEL OUTDOOR AIR NODE,Air,0
 Node,392,90.1-2010 AIRCOOLED WITHCONDENSER  CHILLER 0 273TONS 1.3KW/TON OUTLET NODE FOR CONDENSER,Air,0
 Node,393,AUDITORIUM_ZN_1_FLR_1 ZN PSZ-AC_3-7 DIFFUSER INLET AIR NODE,Air,1
 Node,394,AUX_GYM_ZN_1_FLR_1 ZN PSZ-AC_2-6 DIFFUSER INLET AIR NODE,Air,1
 Node,395,CAFETERIA_ZN_1_FLR_1 ZN PSZ-AC_5-9 DIFFUSER INLET AIR NODE,Air,1
 Node,396,GYM_ZN_1_FLR_1 ZN PSZ-AC_1-5 DIFFUSER INLET AIR NODE,Air,1
 Node,397,KITCHEN_ZN_1_FLR_1 ZN PSZ-AC_4-8 DIFFUSER INLET AIR NODE,Air,1
 Node,398,MAIN_CORRIDOR_ZN_1_FLR_1 ZN VAV TERMINAL INLET AIR NODE,Air,1
 Node,399,MAIN_CORRIDOR_ZN_1_FLR_2 ZN VAV TERMINAL INLET AIR NODE,Air,1
 Node,400,LOBBY_ZN_1_FLR_1 ZN VAV TERMINAL INLET AIR NODE,Air,1
 Node,401,LOBBY_ZN_1_FLR_2 ZN VAV TERMINAL INLET AIR NODE,Air,1
 Node,402,BATHROOMS_ZN_1_FLR_1 ZN VAV TERMINAL INLET AIR NODE,Air,1
 Node,403,BATHROOMS_ZN_1_FLR_2 ZN VAV TERMINAL INLET AIR NODE,Air,1
 Node,404,OFFICES_ZN_1_FLR_1 ZN VAV TERMINAL INLET AIR NODE,Air,1
 Node,405,OFFICES_ZN_1_FLR_2 ZN VAV TERMINAL INLET AIR NODE,Air,1
 Node,406,LIBRARY_MEDIA_CENTER_ZN_1_FLR_2 ZN VAV TERMINAL INLET AIR NODE,Air,1
 Node,407,MECH_ZN_1_FLR_1 ZN VAV TERMINAL INLET AIR NODE,Air,1
 Node,408,MECH_ZN_1_FLR_2 ZN VAV TERMINAL INLET AIR NODE,Air,1
 Node,409,CORNER_CLASS_1_POD_1_ZN_1_FLR_1 ZN VAV TERMINAL INLET AIR NODE,Air,1
 Node,410,CORNER_CLASS_1_POD_1_ZN_1_FLR_2 ZN VAV TERMINAL INLET AIR NODE,Air,1
 Node,411,MULT_CLASS_1_POD_1_ZN_1_FLR_1 ZN VAV TERMINAL INLET AIR NODE,Air,1
 Node,412,MULT_CLASS_1_POD_1_ZN_1_FLR_2 ZN VAV TERMINAL INLET AIR NODE,Air,1
 Node,413,CORRIDOR_POD_1_ZN_1_FLR_1 ZN VAV TERMINAL INLET AIR NODE,Air,1
 Node,414,CORRIDOR_POD_1_ZN_1_FLR_2 ZN VAV TERMINAL INLET AIR NODE,Air,1
 Node,415,CORNER_CLASS_2_POD_1_ZN_1_FLR_1 ZN VAV TERMINAL INLET AIR NODE,Air,1
 Node,416,CORNER_CLASS_2_POD_1_ZN_1_FLR_2 ZN VAV TERMINAL INLET AIR NODE,Air,1
 Node,417,MULT_CLASS_2_POD_1_ZN_1_FLR_1 ZN VAV TERMINAL INLET AIR NODE,Air,1
 Node,418,MULT_CLASS_2_POD_1_ZN_1_FLR_2 ZN VAV TERMINAL INLET AIR NODE,Air,1
 Node,419,CORNER_CLASS_1_POD_2_ZN_1_FLR_1 ZN VAV TERMINAL INLET AIR NODE,Air,1
 Node,420,CORNER_CLASS_1_POD_2_ZN_1_FLR_2 ZN VAV TERMINAL INLET AIR NODE,Air,1
 Node,421,MULT_CLASS_1_POD_2_ZN_1_FLR_1 ZN VAV TERMINAL INLET AIR NODE,Air,1
 Node,422,MULT_CLASS_1_POD_2_ZN_1_FLR_2 ZN VAV TERMINAL INLET AIR NODE,Air,1
 Node,423,CORRIDOR_POD_2_ZN_1_FLR_1 ZN VAV TERMINAL INLET AIR NODE,Air,1
 Node,424,CORRIDOR_POD_2_ZN_1_FLR_2 ZN VAV TERMINAL INLET AIR NODE,Air,1
 Node,425,CORNER_CLASS_2_POD_2_ZN_1_FLR_1 ZN VAV TERMINAL INLET AIR NODE,Air,1
 Node,426,CORNER_CLASS_2_POD_2_ZN_1_FLR_2 ZN VAV TERMINAL INLET AIR NODE,Air,1
 Node,427,MULT_CLASS_2_POD_2_ZN_1_FLR_1 ZN VAV TERMINAL INLET AIR NODE,Air,1
 Node,428,MULT_CLASS_2_POD_2_ZN_1_FLR_2 ZN VAV TERMINAL INLET AIR NODE,Air,1
 Node,429,CORNER_CLASS_1_POD_3_ZN_1_FLR_1 ZN VAV TERMINAL INLET AIR NODE,Air,1
 Node,430,CORNER_CLASS_1_POD_3_ZN_1_FLR_2 ZN VAV TERMINAL INLET AIR NODE,Air,1
 Node,431,MULT_CLASS_1_POD_3_ZN_1_FLR_1 ZN VAV TERMINAL INLET AIR NODE,Air,1
 Node,432,MULT_CLASS_1_POD_3_ZN_1_FLR_2 ZN VAV TERMINAL INLET AIR NODE,Air,1
 Node,433,CORRIDOR_POD_3_ZN_1_FLR_1 ZN VAV TERMINAL INLET AIR NODE,Air,1
 Node,434,CORRIDOR_POD_3_ZN_1_FLR_2 ZN VAV TERMINAL INLET AIR NODE,Air,1
 Node,435,CORNER_CLASS_2_POD_3_ZN_1_FLR_1 ZN VAV TERMINAL INLET AIR NODE,Air,1
 Node,436,CORNER_CLASS_2_POD_3_ZN_1_FLR_2 ZN VAV TERMINAL INLET AIR NODE,Air,1
 Node,437,MULT_CLASS_2_POD_3_ZN_1_FLR_1 ZN VAV TERMINAL INLET AIR NODE,Air,1
 Node,438,MULT_CLASS_2_POD_3_ZN_1_FLR_2 ZN VAV TERMINAL INLET AIR NODE,Air,1
 Node,439,BATHROOMS_ZN_1_FLR_1 ZN VAV TERMINAL DAMPER OUTLET,Air,1
 Node,440,BATHROOMS_ZN_1_FLR_2 ZN VAV TERMINAL DAMPER OUTLET,Air,1
 Node,441,CORNER_CLASS_1_POD_1_ZN_1_FLR_1 ZN VAV TERMINAL DAMPER OUTLET,Air,1
 Node,442,CORNER_CLASS_1_POD_1_ZN_1_FLR_2 ZN VAV TERMINAL DAMPER OUTLET,Air,1
 Node,443,CORNER_CLASS_1_POD_2_ZN_1_FLR_1 ZN VAV TERMINAL DAMPER OUTLET,Air,1
 Node,444,CORNER_CLASS_1_POD_2_ZN_1_FLR_2 ZN VAV TERMINAL DAMPER OUTLET,Air,1
 Node,445,CORNER_CLASS_1_POD_3_ZN_1_FLR_1 ZN VAV TERMINAL DAMPER OUTLET,Air,1
 Node,446,CORNER_CLASS_1_POD_3_ZN_1_FLR_2 ZN VAV TERMINAL DAMPER OUTLET,Air,1
 Node,447,CORNER_CLASS_2_POD_1_ZN_1_FLR_1 ZN VAV TERMINAL DAMPER OUTLET,Air,1
 Node,448,CORNER_CLASS_2_POD_1_ZN_1_FLR_2 ZN VAV TERMINAL DAMPER OUTLET,Air,1
 Node,449,CORNER_CLASS_2_POD_2_ZN_1_FLR_1 ZN VAV TERMINAL DAMPER OUTLET,Air,1
 Node,450,CORNER_CLASS_2_POD_2_ZN_1_FLR_2 ZN VAV TERMINAL DAMPER OUTLET,Air,1
 Node,451,CORNER_CLASS_2_POD_3_ZN_1_FLR_1 ZN VAV TERMINAL DAMPER OUTLET,Air,1
 Node,452,CORNER_CLASS_2_POD_3_ZN_1_FLR_2 ZN VAV TERMINAL DAMPER OUTLET,Air,1
 Node,453,CORRIDOR_POD_1_ZN_1_FLR_1 ZN VAV TERMINAL DAMPER OUTLET,Air,1
 Node,454,CORRIDOR_POD_1_ZN_1_FLR_2 ZN VAV TERMINAL DAMPER OUTLET,Air,1
 Node,455,CORRIDOR_POD_2_ZN_1_FLR_1 ZN VAV TERMINAL DAMPER OUTLET,Air,1
 Node,456,CORRIDOR_POD_2_ZN_1_FLR_2 ZN VAV TERMINAL DAMPER OUTLET,Air,1
 Node,457,CORRIDOR_POD_3_ZN_1_FLR_1 ZN VAV TERMINAL DAMPER OUTLET,Air,1
 Node,458,CORRIDOR_POD_3_ZN_1_FLR_2 ZN VAV TERMINAL DAMPER OUTLET,Air,1
 Node,459,LIBRARY_MEDIA_CENTER_ZN_1_FLR_2 ZN VAV TERMINAL DAMPER OUTLET,Air,1
 Node,460,LOBBY_ZN_1_FLR_1 ZN VAV TERMINAL DAMPER OUTLET,Air,1
 Node,461,LOBBY_ZN_1_FLR_2 ZN VAV TERMINAL DAMPER OUTLET,Air,1
 Node,462,MAIN_CORRIDOR_ZN_1_FLR_1 ZN VAV TERMINAL DAMPER OUTLET,Air,1
 Node,463,MAIN_CORRIDOR_ZN_1_FLR_2 ZN VAV TERMINAL DAMPER OUTLET,Air,1
 Node,464,MECH_ZN_1_FLR_1 ZN VAV TERMINAL DAMPER OUTLET,Air,1
 Node,465,MECH_ZN_1_FLR_2 ZN VAV TERMINAL DAMPER OUTLET,Air,1
 Node,466,MULT_CLASS_1_POD_1_ZN_1_FLR_1 ZN VAV TERMINAL DAMPER OUTLET,Air,1
 Node,467,MULT_CLASS_1_POD_1_ZN_1_FLR_2 ZN VAV TERMINAL DAMPER OUTLET,Air,1
 Node,468,MULT_CLASS_1_POD_2_ZN_1_FLR_1 ZN VAV TERMINAL DAMPER OUTLET,Air,1
 Node,469,MULT_CLASS_1_POD_2_ZN_1_FLR_2 ZN VAV TERMINAL DAMPER OUTLET,Air,1
 Node,470,MULT_CLASS_1_POD_3_ZN_1_FLR_1 ZN VAV TERMINAL DAMPER OUTLET,Air,1
 Node,471,MULT_CLASS_1_POD_3_ZN_1_FLR_2 ZN VAV TERMINAL DAMPER OUTLET,Air,1
 Node,472,MULT_CLASS_2_POD_1_ZN_1_FLR_1 ZN VAV TERMINAL DAMPER OUTLET,Air,1
 Node,473,MULT_CLASS_2_POD_1_ZN_1_FLR_2 ZN VAV TERMINAL DAMPER OUTLET,Air,1
 Node,474,MULT_CLASS_2_POD_2_ZN_1_FLR_1 ZN VAV TERMINAL DAMPER OUTLET,Air,1
 Node,475,MULT_CLASS_2_POD_2_ZN_1_FLR_2 ZN VAV TERMINAL DAMPER OUTLET,Air,1
 Node,476,MULT_CLASS_2_POD_3_ZN_1_FLR_1 ZN VAV TERMINAL DAMPER OUTLET,Air,1
 Node,477,MULT_CLASS_2_POD_3_ZN_1_FLR_2 ZN VAV TERMINAL DAMPER OUTLET,Air,1
 Node,478,OFFICES_ZN_1_FLR_1 ZN VAV TERMINAL DAMPER OUTLET,Air,1
 Node,479,OFFICES_ZN_1_FLR_2 ZN VAV TERMINAL DAMPER OUTLET,Air,1
 Node,480,BATHROOMS_ZN_1_FLR_1 ZN EXHAUST FAN OUTLET AIR NODE,Air,0
 Node,481,BATHROOMS_ZN_1_FLR_2 ZN EXHAUST FAN OUTLET AIR NODE,Air,0
 Node,482,KITCHEN_ZN_1_FLR_1 ZN EXHAUST FAN OUTLET AIR NODE,Air,0
 Node,483,AUDITORIUM_ZN_1_FLR_1 ZN PSZ-AC_3-7 RELIEF AIR NODE,Air,1
 Node,484,AUX_GYM_ZN_1_FLR_1 ZN PSZ-AC_2-6 RELIEF AIR NODE,Air,1
 Node,485,CAFETERIA_ZN_1_FLR_1 ZN PSZ-AC_5-9 RELIEF AIR NODE,Air,1
 Node,486,GYM_ZN_1_FLR_1 ZN PSZ-AC_1-5 RELIEF AIR NODE,Air,1
 Node,487,KITCHEN_ZN_1_FLR_1 ZN PSZ-AC_4-8 RELIEF AIR NODE,Air,1
 Node,488,VAV_OTHER RELIEF AIR NODE,Air,1
 Node,489,VAV_POD_1 RELIEF AIR NODE,Air,1
 Node,490,VAV_POD_2 RELIEF AIR NODE,Air,1
 Node,491,VAV_POD_3 RELIEF AIR NODE,Air,1
! ===============================================================
! Suspicious nodes have 0 references.  It is normal for some nodes, however.
! Listing nodes with 0 references (culled from previous list):
! <Suspicious Node>,<NodeNumber>,<Node Name>,<Node Fluid Type>,<# Times Node Referenced After Definition>
 Suspicious Node,328,BATHROOMS_ZN_1_FLR_1 ZN ZONE AIR NODE,Air,0
 Suspicious Node,329,BATHROOMS_ZN_1_FLR_2 ZN ZONE AIR NODE,Air,0
 Suspicious Node,331,CORNER_CLASS_1_POD_1_ZN_1_FLR_1 ZN ZONE AIR NODE,Air,0
 Suspicious Node,332,CORNER_CLASS_1_POD_1_ZN_1_FLR_2 ZN ZONE AIR NODE,Air,0
 Suspicious Node,333,CORNER_CLASS_1_POD_2_ZN_1_FLR_1 ZN ZONE AIR NODE,Air,0
 Suspicious Node,334,CORNER_CLASS_1_POD_2_ZN_1_FLR_2 ZN ZONE AIR NODE,Air,0
 Suspicious Node,335,CORNER_CLASS_1_POD_3_ZN_1_FLR_1 ZN ZONE AIR NODE,Air,0
 Suspicious Node,336,CORNER_CLASS_1_POD_3_ZN_1_FLR_2 ZN ZONE AIR NODE,Air,0
 Suspicious Node,337,CORNER_CLASS_2_POD_1_ZN_1_FLR_1 ZN ZONE AIR NODE,Air,0
 Suspicious Node,338,CORNER_CLASS_2_POD_1_ZN_1_FLR_2 ZN ZONE AIR NODE,Air,0
 Suspicious Node,339,CORNER_CLASS_2_POD_2_ZN_1_FLR_1 ZN ZONE AIR NODE,Air,0
 Suspicious Node,340,CORNER_CLASS_2_POD_2_ZN_1_FLR_2 ZN ZONE AIR NODE,Air,0
 Suspicious Node,341,CORNER_CLASS_2_POD_3_ZN_1_FLR_1 ZN ZONE AIR NODE,Air,0
 Suspicious Node,342,CORNER_CLASS_2_POD_3_ZN_1_FLR_2 ZN ZONE AIR NODE,Air,0
 Suspicious Node,343,CORRIDOR_POD_1_ZN_1_FLR_1 ZN ZONE AIR NODE,Air,0
 Suspicious Node,344,CORRIDOR_POD_1_ZN_1_FLR_2 ZN ZONE AIR NODE,Air,0
 Suspicious Node,345,CORRIDOR_POD_2_ZN_1_FLR_1 ZN ZONE AIR NODE,Air,0
 Suspicious Node,346,CORRIDOR_POD_2_ZN_1_FLR_2 ZN ZONE AIR NODE,Air,0
 Suspicious Node,347,CORRIDOR_POD_3_ZN_1_FLR_1 ZN ZONE AIR NODE,Air,0
 Suspicious Node,348,CORRIDOR_POD_3_ZN_1_FLR_2 ZN ZONE AIR NODE,Air,0
 Suspicious Node,351,LIBRARY_MEDIA_CENTER_ZN_1_FLR_2 ZN ZONE AIR NODE,Air,0
 Suspicious Node,352,LOBBY_ZN_1_FLR_1 ZN ZONE AIR NODE,Air,0
 Suspicious Node,353,LOBBY_ZN_1_FLR_2 ZN ZONE AIR NODE,Air,0
 Suspicious Node,354,MAIN_CORRIDOR_ZN_1_FLR_1 ZN ZONE AIR NODE,Air,0
 Suspicious Node,355,MAIN_CORRIDOR_ZN_1_FLR_2 ZN ZONE AIR NODE,Air,0
 Suspicious Node,356,MECH_ZN_1_FLR_1 ZN ZONE AIR NODE,Air,0
 Suspicious Node,357,MECH_ZN_1_FLR_2 ZN ZONE AIR NODE,Air,0
 Suspicious Node,358,MULT_CLASS_1_POD_1_ZN_1_FLR_1 ZN ZONE AIR NODE,Air,0
 Suspicious Node,359,MULT_CLASS_1_POD_1_ZN_1_FLR_2 ZN ZONE AIR NODE,Air,0
 Suspicious Node,360,MULT_CLASS_1_POD_2_ZN_1_FLR_1 ZN ZONE AIR NODE,Air,0
 Suspicious Node,361,MULT_CLASS_1_POD_2_ZN_1_FLR_2 ZN ZONE AIR NODE,Air,0
 Suspicious Node,362,MULT_CLASS_1_POD_3_ZN_1_FLR_1 ZN ZONE AIR NODE,Air,0
 Suspicious Node,363,MULT_CLASS_1_POD_3_ZN_1_FLR_2 ZN ZONE AIR NODE,Air,0
 Suspicious Node,364,MULT_CLASS_2_POD_1_ZN_1_FLR_1 ZN ZONE AIR NODE,Air,0
 Suspicious Node,365,MULT_CLASS_2_POD_1_ZN_1_FLR_2 ZN ZONE AIR NODE,Air,0
 Suspicious Node,366,MULT_CLASS_2_POD_2_ZN_1_FLR_1 ZN ZONE AIR NODE,Air,0
 Suspicious Node,367,MULT_CLASS_2_POD_2_ZN_1_FLR_2 ZN ZONE AIR NODE,Air,0
 Suspicious Node,368,MULT_CLASS_2_POD_3_ZN_1_FLR_1 ZN ZONE AIR NODE,Air,0
 Suspicious Node,369,MULT_CLASS_2_POD_3_ZN_1_FLR_2 ZN ZONE AIR NODE,Air,0
 Suspicious Node,370,OFFICES_ZN_1_FLR_1 ZN ZONE AIR NODE,Air,0
 Suspicious Node,371,OFFICES_ZN_1_FLR_2 ZN ZONE AIR NODE,Air,0
 Suspicious Node,391,MODEL OUTDOOR AIR NODE,Air,0
 Suspicious Node,392,90.1-2010 AIRCOOLED WITHCONDENSER  CHILLER 0 273TONS 1.3KW/TON OUTLET NODE FOR CONDENSER,Air,0
 Suspicious Node,480,BATHROOMS_ZN_1_FLR_1 ZN EXHAUST FAN OUTLET AIR NODE,Air,0
 Suspicious Node,481,BATHROOMS_ZN_1_FLR_2 ZN EXHAUST FAN OUTLET AIR NODE,Air,0
 Suspicious Node,482,KITCHEN_ZN_1_FLR_1 ZN EXHAUST FAN OUTLET AIR NODE,Air,0
! ===============================================================
! <#Branch Lists>,<Number of Branch Lists>
 #Branch Lists,17
! <Branch List>,<Branch List Count>,<Branch List Name>,<Loop Name>,<Loop Type>,<Number of Branches>
! <Branch>,<Branch Count>,<Branch Name>,<Loop Name>,<Loop Type>,<Branch Inlet Node Name>,<Branch Outlet Node Name>
 Branch List,1,AUDITORIUM_ZN_1_FLR_1 ZN PSZ-AC_3-7 SUPPLY BRANCHES,AUDITORIUM_ZN_1_FLR_1 ZN PSZ-AC_3-7,Air,1
   Branch,1,AUDITORIUM_ZN_1_FLR_1 ZN PSZ-AC_3-7 MAIN BRANCH,AUDITORIUM_ZN_1_FLR_1 ZN PSZ-AC_3-7,Air,AUDITORIUM_ZN_1_FLR_1 ZN PSZ-AC_3-7 SUPPLY INLET NODE,AUDITORIUM_ZN_1_FLR_1 ZN PSZ-AC_3-7 SUPPLY OUTLET NODE
 Branch List,2,AUX_GYM_ZN_1_FLR_1 ZN PSZ-AC_2-6 SUPPLY BRANCHES,AUX_GYM_ZN_1_FLR_1 ZN PSZ-AC_2-6,Air,1
   Branch,1,AUX_GYM_ZN_1_FLR_1 ZN PSZ-AC_2-6 MAIN BRANCH,AUX_GYM_ZN_1_FLR_1 ZN PSZ-AC_2-6,Air,AUX_GYM_ZN_1_FLR_1 ZN PSZ-AC_2-6 SUPPLY INLET NODE,AUX_GYM_ZN_1_FLR_1 ZN PSZ-AC_2-6 SUPPLY OUTLET NODE
 Branch List,3,CAFETERIA_ZN_1_FLR_1 ZN PSZ-AC_5-9 SUPPLY BRANCHES,CAFETERIA_ZN_1_FLR_1 ZN PSZ-AC_5-9,Air,1
   Branch,1,CAFETERIA_ZN_1_FLR_1 ZN PSZ-AC_5-9 MAIN BRANCH,CAFETERIA_ZN_1_FLR_1 ZN PSZ-AC_5-9,Air,CAFETERIA_ZN_1_FLR_1 ZN PSZ-AC_5-9 SUPPLY INLET NODE,CAFETERIA_ZN_1_FLR_1 ZN PSZ-AC_5-9 SUPPLY OUTLET NODE
 Branch List,4,GYM_ZN_1_FLR_1 ZN PSZ-AC_1-5 SUPPLY BRANCHES,GYM_ZN_1_FLR_1 ZN PSZ-AC_1-5,Air,1
   Branch,1,GYM_ZN_1_FLR_1 ZN PSZ-AC_1-5 MAIN BRANCH,GYM_ZN_1_FLR_1 ZN PSZ-AC_1-5,Air,GYM_ZN_1_FLR_1 ZN PSZ-AC_1-5 SUPPLY INLET NODE,GYM_ZN_1_FLR_1 ZN PSZ-AC_1-5 SUPPLY OUTLET NODE
 Branch List,5,KITCHEN_ZN_1_FLR_1 ZN PSZ-AC_4-8 SUPPLY BRANCHES,KITCHEN_ZN_1_FLR_1 ZN PSZ-AC_4-8,Air,1
   Branch,1,KITCHEN_ZN_1_FLR_1 ZN PSZ-AC_4-8 MAIN BRANCH,KITCHEN_ZN_1_FLR_1 ZN PSZ-AC_4-8,Air,KITCHEN_ZN_1_FLR_1 ZN PSZ-AC_4-8 SUPPLY INLET NODE,KITCHEN_ZN_1_FLR_1 ZN PSZ-AC_4-8 SUPPLY OUTLET NODE
 Branch List,6,VAV_OTHER SUPPLY BRANCHES,VAV_OTHER,Air,1
   Branch,1,VAV_OTHER MAIN BRANCH,VAV_OTHER,Air,VAV_OTHER SUPPLY INLET NODE,VAV_OTHER SUPPLY OUTLET NODE
 Branch List,7,VAV_POD_1 SUPPLY BRANCHES,VAV_POD_1,Air,1
   Branch,1,VAV_POD_1 MAIN BRANCH,VAV_POD_1,Air,VAV_POD_1 SUPPLY INLET NODE,VAV_POD_1 SUPPLY OUTLET NODE
 Branch List,8,VAV_POD_2 SUPPLY BRANCHES,VAV_POD_2,Air,1
   Branch,1,VAV_POD_2 MAIN BRANCH,VAV_POD_2,Air,VAV_POD_2 SUPPLY INLET NODE,VAV_POD_2 SUPPLY OUTLET NODE
 Branch List,9,VAV_POD_3 SUPPLY BRANCHES,VAV_POD_3,Air,1
   Branch,1,VAV_POD_3 MAIN BRANCH,VAV_POD_3,Air,VAV_POD_3 SUPPLY INLET NODE,VAV_POD_3 SUPPLY OUTLET NODE
 Branch List,10,CHILLED WATER LOOP SUPPLY BRANCHES,CHILLED WATER LOOP,Plant Supply,4
   Branch,1,CHILLED WATER LOOP SUPPLY INLET BRANCH,CHILLED WATER LOOP,Plant Supply,CHILLED WATER LOOP SUPPLY INLET NODE,CHILLED WATER LOOP PRIMARY PUMP OUTLET WATER NODE
   Branch,2,CHILLED WATER LOOP SUPPLY BRANCH 1,CHILLED WATER LOOP,Plant Supply,90.1-2010 AIRCOOLED WITHCONDENSER  CHILLER 0 273TONS 1.3KW/TON SUPPLY INLET WATER NODE,90.1-2010 AIRCOOLED WITHCONDENSER  CHILLER 0 273TONS 1.3KW/TON SUPPLY OUTLET WATER NODE
   Branch,3,CHILLED WATER LOOP SUPPLY BRANCH 2,CHILLED WATER LOOP,Plant Supply,CHILLED WATER LOOP CHILLER BYPASS INLET WATER NODE,CHILLED WATER LOOP CHILLER BYPASS OUTLET WATER NODE
   Branch,4,CHILLED WATER LOOP SUPPLY OUTLET BRANCH,CHILLED WATER LOOP,Plant Supply,CHILLED WATER LOOP SUPPLY OUTLET INLET WATER NODE,CHILLED WATER LOOP SUPPLY OUTLET NODE
 Branch List,11,CHILLED WATER LOOP DEMAND BRANCHES,CHILLED WATER LOOP,Plant Demand,8
   Branch,1,CHILLED WATER LOOP DEMAND INLET BRANCH,CHILLED WATER LOOP,Plant Demand,CHILLED WATER LOOP DEMAND INLET NODE,CHILLED WATER LOOP SECONDARY PUMP OUTLET WATER NODE
   Branch,2,CHILLED WATER LOOP DEMAND BRANCH 1,CHILLED WATER LOOP,Plant Demand,CHILLED WATER LOOP COIL BYPASS INLET WATER NODE,CHILLED WATER LOOP COIL BYPASS OUTLET WATER NODE
   Branch,3,CHILLED WATER LOOP DEMAND BRANCH 2,CHILLED WATER LOOP,Plant Demand,VAV_POD_1 CLG COIL INLET WATER NODE,VAV_POD_1 CLG COIL OUTLET WATER NODE
   Branch,4,CHILLED WATER LOOP DEMAND BRANCH 3,CHILLED WATER LOOP,Plant Demand,VAV_POD_2 CLG COIL INLET WATER NODE,VAV_POD_2 CLG COIL OUTLET WATER NODE
   Branch,5,CHILLED WATER LOOP DEMAND BRANCH 4,CHILLED WATER LOOP,Plant Demand,VAV_POD_3 CLG COIL INLET WATER NODE,VAV_POD_3 CLG COIL OUTLET WATER NODE
   Branch,6,CHILLED WATER LOOP DEMAND BRANCH 5,CHILLED WATER LOOP,Plant Demand,VAV_OTHER CLG COIL INLET WATER NODE,VAV_OTHER CLG COIL OUTLET WATER NODE
   Branch,7,CHILLED WATER LOOP DEMAND BYPASS BRANCH,CHILLED WATER LOOP,Plant Demand,CHILLED WATER LOOP DEMAND BYPASS PIPE INLET NODE,CHILLED WATER LOOP DEMAND BYPASS PIPE OUTLET NODE
   Branch,8,CHILLED WATER LOOP DEMAND OUTLET BRANCH,CHILLED WATER LOOP,Plant Demand,CHILLED WATER LOOP DEMAND OUTLET INLET WATER NODE,CHILLED WATER LOOP DEMAND OUTLET NODE
 Branch List,12,HOT WATER LOOP SUPPLY BRANCHES,HOT WATER LOOP,Plant Supply,4
   Branch,1,HOT WATER LOOP SUPPLY INLET BRANCH,HOT WATER LOOP,Plant Supply,HOT WATER LOOP SUPPLY INLET NODE,HOT WATER LOOP PUMP OUTLET WATER NODE
   Branch,2,HOT WATER LOOP SUPPLY BRANCH 1,HOT WATER LOOP,Plant Supply,BOILER 1724KBTU/HR 0.8 THERMAL EFF INLET WATER NODE,BOILER 1724KBTU/HR 0.8 THERMAL EFF OUTLET WATER NODE
   Branch,3,HOT WATER LOOP SUPPLY BRANCH 2,HOT WATER LOOP,Plant Supply,HOT WATER LOOP SUPPLY EQUIPMENT BYPASS INLET WATER NODE,HOT WATER LOOP SUPPLY EQUIPMENT BYPASS OUTLET WATER NODE
   Branch,4,HOT WATER LOOP SUPPLY OUTLET BRANCH,HOT WATER LOOP,Plant Supply,HOT WATER LOOP SUPPLY OUTLET INLET WATER NODE,HOT WATER LOOP SUPPLY OUTLET NODE
 Branch List,13,HOT WATER LOOP DEMAND BRANCHES,HOT WATER LOOP,Plant Demand,49
   Branch,1,HOT WATER LOOP DEMAND INLET BRANCH,HOT WATER LOOP,Plant Demand,HOT WATER LOOP DEMAND INLET NODE,HOT WATER LOOP DEMAND INLET OUTLET WATER NODE
   Branch,2,HOT WATER LOOP DEMAND BRANCH 1,HOT WATER LOOP,Plant Demand,HOT WATER LOOP COIL BYPASS INLET WATER NODE,HOT WATER LOOP COIL BYPASS OUTLET WATER NODE
   Branch,3,HOT WATER LOOP DEMAND BRANCH 2,HOT WATER LOOP,Plant Demand,VAV_POD_1 MAIN HTG COIL INLET WATER NODE,VAV_POD_1 MAIN HTG COIL OUTLET WATER NODE
   Branch,4,HOT WATER LOOP DEMAND BRANCH 3,HOT WATER LOOP,Plant Demand,CORNER_CLASS_1_POD_1_ZN_1_FLR_1 ZN REHEAT COIL INLET WATER NODE,CORNER_CLASS_1_POD_1_ZN_1_FLR_1 ZN REHEAT COIL OUTLET WATER NODE
   Branch,5,HOT WATER LOOP DEMAND BRANCH 4,HOT WATER LOOP,Plant Demand,CORNER_CLASS_1_POD_1_ZN_1_FLR_2 ZN REHEAT COIL INLET WATER NODE,CORNER_CLASS_1_POD_1_ZN_1_FLR_2 ZN REHEAT COIL OUTLET WATER NODE
   Branch,6,HOT WATER LOOP DEMAND BRANCH 5,HOT WATER LOOP,Plant Demand,MULT_CLASS_1_POD_1_ZN_1_FLR_1 ZN REHEAT COIL INLET WATER NODE,MULT_CLASS_1_POD_1_ZN_1_FLR_1 ZN REHEAT COIL OUTLET WATER NODE
   Branch,7,HOT WATER LOOP DEMAND BRANCH 6,HOT WATER LOOP,Plant Demand,MULT_CLASS_1_POD_1_ZN_1_FLR_2 ZN REHEAT COIL INLET WATER NODE,MULT_CLASS_1_POD_1_ZN_1_FLR_2 ZN REHEAT COIL OUTLET WATER NODE
   Branch,8,HOT WATER LOOP DEMAND BRANCH 7,HOT WATER LOOP,Plant Demand,CORRIDOR_POD_1_ZN_1_FLR_1 ZN REHEAT COIL INLET WATER NODE,CORRIDOR_POD_1_ZN_1_FLR_1 ZN REHEAT COIL OUTLET WATER NODE
   Branch,9,HOT WATER LOOP DEMAND BRANCH 8,HOT WATER LOOP,Plant Demand,CORRIDOR_POD_1_ZN_1_FLR_2 ZN REHEAT COIL INLET WATER NODE,CORRIDOR_POD_1_ZN_1_FLR_2 ZN REHEAT COIL OUTLET WATER NODE
   Branch,10,HOT WATER LOOP DEMAND BRANCH 9,HOT WATER LOOP,Plant Demand,CORNER_CLASS_2_POD_1_ZN_1_FLR_1 ZN REHEAT COIL INLET WATER NODE,CORNER_CLASS_2_POD_1_ZN_1_FLR_1 ZN REHEAT COIL OUTLET WATER NODE
   Branch,11,HOT WATER LOOP DEMAND BRANCH 10,HOT WATER LOOP,Plant Demand,CORNER_CLASS_2_POD_1_ZN_1_FLR_2 ZN REHEAT COIL INLET WATER NODE,CORNER_CLASS_2_POD_1_ZN_1_FLR_2 ZN REHEAT COIL OUTLET WATER NODE
   Branch,12,HOT WATER LOOP DEMAND BRANCH 11,HOT WATER LOOP,Plant Demand,MULT_CLASS_2_POD_1_ZN_1_FLR_1 ZN REHEAT COIL INLET WATER NODE,MULT_CLASS_2_POD_1_ZN_1_FLR_1 ZN REHEAT COIL OUTLET WATER NODE
   Branch,13,HOT WATER LOOP DEMAND BRANCH 12,HOT WATER LOOP,Plant Demand,MULT_CLASS_2_POD_1_ZN_1_FLR_2 ZN REHEAT COIL INLET WATER NODE,MULT_CLASS_2_POD_1_ZN_1_FLR_2 ZN REHEAT COIL OUTLET WATER NODE
   Branch,14,HOT WATER LOOP DEMAND BRANCH 13,HOT WATER LOOP,Plant Demand,VAV_POD_2 MAIN HTG COIL INLET WATER NODE,VAV_POD_2 MAIN HTG COIL OUTLET WATER NODE
   Branch,15,HOT WATER LOOP DEMAND BRANCH 14,HOT WATER LOOP,Plant Demand,CORNER_CLASS_1_POD_2_ZN_1_FLR_1 ZN REHEAT COIL INLET WATER NODE,CORNER_CLASS_1_POD_2_ZN_1_FLR_1 ZN REHEAT COIL OUTLET WATER NODE
   Branch,16,HOT WATER LOOP DEMAND BRANCH 15,HOT WATER LOOP,Plant Demand,CORNER_CLASS_1_POD_2_ZN_1_FLR_2 ZN REHEAT COIL INLET WATER NODE,CORNER_CLASS_1_POD_2_ZN_1_FLR_2 ZN REHEAT COIL OUTLET WATER NODE
   Branch,17,HOT WATER LOOP DEMAND BRANCH 16,HOT WATER LOOP,Plant Demand,MULT_CLASS_1_POD_2_ZN_1_FLR_1 ZN REHEAT COIL INLET WATER NODE,MULT_CLASS_1_POD_2_ZN_1_FLR_1 ZN REHEAT COIL OUTLET WATER NODE
   Branch,18,HOT WATER LOOP DEMAND BRANCH 17,HOT WATER LOOP,Plant Demand,MULT_CLASS_1_POD_2_ZN_1_FLR_2 ZN REHEAT COIL INLET WATER NODE,MULT_CLASS_1_POD_2_ZN_1_FLR_2 ZN REHEAT COIL OUTLET WATER NODE
   Branch,19,HOT WATER LOOP DEMAND BRANCH 18,HOT WATER LOOP,Plant Demand,CORRIDOR_POD_2_ZN_1_FLR_1 ZN REHEAT COIL INLET WATER NODE,CORRIDOR_POD_2_ZN_1_FLR_1 ZN REHEAT COIL OUTLET WATER NODE
   Branch,20,HOT WATER LOOP DEMAND BRANCH 19,HOT WATER LOOP,Plant Demand,CORRIDOR_POD_2_ZN_1_FLR_2 ZN REHEAT COIL INLET WATER NODE,CORRIDOR_POD_2_ZN_1_FLR_2 ZN REHEAT COIL OUTLET WATER NODE
   Branch,21,HOT WATER LOOP DEMAND BRANCH 20,HOT WATER LOOP,Plant Demand,CORNER_CLASS_2_POD_2_ZN_1_FLR_1 ZN REHEAT COIL INLET WATER NODE,CORNER_CLASS_2_POD_2_ZN_1_FLR_1 ZN REHEAT COIL OUTLET WATER NODE
   Branch,22,HOT WATER LOOP DEMAND BRANCH 21,HOT WATER LOOP,Plant Demand,CORNER_CLASS_2_POD_2_ZN_1_FLR_2 ZN REHEAT COIL INLET WATER NODE,CORNER_CLASS_2_POD_2_ZN_1_FLR_2 ZN REHEAT COIL OUTLET WATER NODE
   Branch,23,HOT WATER LOOP DEMAND BRANCH 22,HOT WATER LOOP,Plant Demand,MULT_CLASS_2_POD_2_ZN_1_FLR_1 ZN REHEAT COIL INLET WATER NODE,MULT_CLASS_2_POD_2_ZN_1_FLR_1 ZN REHEAT COIL OUTLET WATER NODE
   Branch,24,HOT WATER LOOP DEMAND BRANCH 23,HOT WATER LOOP,Plant Demand,MULT_CLASS_2_POD_2_ZN_1_FLR_2 ZN REHEAT COIL INLET WATER NODE,MULT_CLASS_2_POD_2_ZN_1_FLR_2 ZN REHEAT COIL OUTLET WATER NODE
   Branch,25,HOT WATER LOOP DEMAND BRANCH 24,HOT WATER LOOP,Plant Demand,VAV_POD_3 MAIN HTG COIL INLET WATER NODE,VAV_POD_3 MAIN HTG COIL OUTLET WATER NODE
   Branch,26,HOT WATER LOOP DEMAND BRANCH 25,HOT WATER LOOP,Plant Demand,CORNER_CLASS_1_POD_3_ZN_1_FLR_1 ZN REHEAT COIL INLET WATER NODE,CORNER_CLASS_1_POD_3_ZN_1_FLR_1 ZN REHEAT COIL OUTLET WATER NODE
   Branch,27,HOT WATER LOOP DEMAND BRANCH 26,HOT WATER LOOP,Plant Demand,CORNER_CLASS_1_POD_3_ZN_1_FLR_2 ZN REHEAT COIL INLET WATER NODE,CORNER_CLASS_1_POD_3_ZN_1_FLR_2 ZN REHEAT COIL OUTLET WATER NODE
   Branch,28,HOT WATER LOOP DEMAND BRANCH 27,HOT WATER LOOP,Plant Demand,MULT_CLASS_1_POD_3_ZN_1_FLR_1 ZN REHEAT COIL INLET WATER NODE,MULT_CLASS_1_POD_3_ZN_1_FLR_1 ZN REHEAT COIL OUTLET WATER NODE
   Branch,29,HOT WATER LOOP DEMAND BRANCH 28,HOT WATER LOOP,Plant Demand,MULT_CLASS_1_POD_3_ZN_1_FLR_2 ZN REHEAT COIL INLET WATER NODE,MULT_CLASS_1_POD_3_ZN_1_FLR_2 ZN REHEAT COIL OUTLET WATER NODE
   Branch,30,HOT WATER LOOP DEMAND BRANCH 29,HOT WATER LOOP,Plant Demand,CORRIDOR_POD_3_ZN_1_FLR_1 ZN REHEAT COIL INLET WATER NODE,CORRIDOR_POD_3_ZN_1_FLR_1 ZN REHEAT COIL OUTLET WATER NODE
   Branch,31,HOT WATER LOOP DEMAND BRANCH 30,HOT WATER LOOP,Plant Demand,CORRIDOR_POD_3_ZN_1_FLR_2 ZN REHEAT COIL INLET WATER NODE,CORRIDOR_POD_3_ZN_1_FLR_2 ZN REHEAT COIL OUTLET WATER NODE
   Branch,32,HOT WATER LOOP DEMAND BRANCH 31,HOT WATER LOOP,Plant Demand,CORNER_CLASS_2_POD_3_ZN_1_FLR_1 ZN REHEAT COIL INLET WATER NODE,CORNER_CLASS_2_POD_3_ZN_1_FLR_1 ZN REHEAT COIL OUTLET WATER NODE
   Branch,33,HOT WATER LOOP DEMAND BRANCH 32,HOT WATER LOOP,Plant Demand,CORNER_CLASS_2_POD_3_ZN_1_FLR_2 ZN REHEAT COIL INLET WATER NODE,CORNER_CLASS_2_POD_3_ZN_1_FLR_2 ZN REHEAT COIL OUTLET WATER NODE
   Branch,34,HOT WATER LOOP DEMAND BRANCH 33,HOT WATER LOOP,Plant Demand,MULT_CLASS_2_POD_3_ZN_1_FLR_1 ZN REHEAT COIL INLET WATER NODE,MULT_CLASS_2_POD_3_ZN_1_FLR_1 ZN REHEAT COIL OUTLET WATER NODE
   Branch,35,HOT WATER LOOP DEMAND BRANCH 34,HOT WATER LOOP,Plant Demand,MULT_CLASS_2_POD_3_ZN_1_FLR_2 ZN REHEAT COIL INLET WATER NODE,MULT_CLASS_2_POD_3_ZN_1_FLR_2 ZN REHEAT COIL OUTLET WATER NODE
   Branch,36,HOT WATER LOOP DEMAND BRANCH 35,HOT WATER LOOP,Plant Demand,VAV_OTHER MAIN HTG COIL INLET WATER NODE,VAV_OTHER MAIN HTG COIL OUTLET WATER NODE
   Branch,37,HOT WATER LOOP DEMAND BRANCH 36,HOT WATER LOOP,Plant Demand,MAIN_CORRIDOR_ZN_1_FLR_1 ZN REHEAT COIL INLET WATER NODE,MAIN_CORRIDOR_ZN_1_FLR_1 ZN REHEAT COIL OUTLET WATER NODE
   Branch,38,HOT WATER LOOP DEMAND BRANCH 37,HOT WATER LOOP,Plant Demand,MAIN_CORRIDOR_ZN_1_FLR_2 ZN REHEAT COIL INLET WATER NODE,MAIN_CORRIDOR_ZN_1_FLR_2 ZN REHEAT COIL OUTLET WATER NODE
   Branch,39,HOT WATER LOOP DEMAND BRANCH 38,HOT WATER LOOP,Plant Demand,LOBBY_ZN_1_FLR_1 ZN REHEAT COIL INLET WATER NODE,LOBBY_ZN_1_FLR_1 ZN REHEAT COIL OUTLET WATER NODE
   Branch,40,HOT WATER LOOP DEMAND BRANCH 39,HOT WATER LOOP,Plant Demand,LOBBY_ZN_1_FLR_2 ZN REHEAT COIL INLET WATER NODE,LOBBY_ZN_1_FLR_2 ZN REHEAT COIL OUTLET WATER NODE
   Branch,41,HOT WATER LOOP DEMAND BRANCH 40,HOT WATER LOOP,Plant Demand,BATHROOMS_ZN_1_FLR_1 ZN REHEAT COIL INLET WATER NODE,BATHROOMS_ZN_1_FLR_1 ZN REHEAT COIL OUTLET WATER NODE
   Branch,42,HOT WATER LOOP DEMAND BRANCH 41,HOT WATER LOOP,Plant Demand,BATHROOMS_ZN_1_FLR_2 ZN REHEAT COIL INLET WATER NODE,BATHROOMS_ZN_1_FLR_2 ZN REHEAT COIL OUTLET WATER NODE
   Branch,43,HOT WATER LOOP DEMAND BRANCH 42,HOT WATER LOOP,Plant Demand,OFFICES_ZN_1_FLR_1 ZN REHEAT COIL INLET WATER NODE,OFFICES_ZN_1_FLR_1 ZN REHEAT COIL OUTLET WATER NODE
   Branch,44,HOT WATER LOOP DEMAND BRANCH 43,HOT WATER LOOP,Plant Demand,OFFICES_ZN_1_FLR_2 ZN REHEAT COIL INLET WATER NODE,OFFICES_ZN_1_FLR_2 ZN REHEAT COIL OUTLET WATER NODE
   Branch,45,HOT WATER LOOP DEMAND BRANCH 44,HOT WATER LOOP,Plant Demand,LIBRARY_MEDIA_CENTER_ZN_1_FLR_2 ZN REHEAT COIL INLET WATER NODE,LIBRARY_MEDIA_CENTER_ZN_1_FLR_2 ZN REHEAT COIL OUTLET WATER NODE
   Branch,46,HOT WATER LOOP DEMAND BRANCH 45,HOT WATER LOOP,Plant Demand,MECH_ZN_1_FLR_1 ZN REHEAT COIL INLET WATER NODE,MECH_ZN_1_FLR_1 ZN REHEAT COIL OUTLET WATER NODE
   Branch,47,HOT WATER LOOP DEMAND BRANCH 46,HOT WATER LOOP,Plant Demand,MECH_ZN_1_FLR_2 ZN REHEAT COIL INLET WATER NODE,MECH_ZN_1_FLR_2 ZN REHEAT COIL OUTLET WATER NODE
   Branch,48,HOT WATER LOOP DEMAND BYPASS BRANCH,HOT WATER LOOP,Plant Demand,HOT WATER LOOP DEMAND BYPASS PIPE INLET NODE,HOT WATER LOOP DEMAND BYPASS PIPE OUTLET NODE
   Branch,49,HOT WATER LOOP DEMAND OUTLET BRANCH,HOT WATER LOOP,Plant Demand,HOT WATER LOOP DEMAND OUTLET INLET WATER NODE,HOT WATER LOOP DEMAND OUTLET NODE
 Branch List,14,MAIN SERVICE WATER LOOP SUPPLY BRANCHES,MAIN SERVICE WATER LOOP,Plant Supply,4
   Branch,1,MAIN SERVICE WATER LOOP SUPPLY INLET BRANCH,MAIN SERVICE WATER LOOP,Plant Supply,MAIN SERVICE WATER LOOP SUPPLY INLET NODE,MAIN SERVICE WATER LOOP CIRCULATOR PUMP OUTLET WATER NODE
   Branch,2,MAIN SERVICE WATER LOOP SUPPLY BRANCH 1,MAIN SERVICE WATER LOOP,Plant Supply,600GAL NATURAL GAS WATER HEATER - 600KBTU/HR 0.803 THERM EFF SUPPLY INLET WATER NODE,600GAL NATURAL GAS WATER HEATER - 600KBTU/HR 0.803 THERM EFF SUPPLY OUTLET WATER NODE
   Branch,3,MAIN SERVICE WATER LOOP SUPPLY BRANCH 2,MAIN SERVICE WATER LOOP,Plant Supply,PIPE ADIABATIC 1 INLET WATER NODE,PIPE ADIABATIC 1 OUTLET WATER NODE
   Branch,4,MAIN SERVICE WATER LOOP SUPPLY OUTLET BRANCH,MAIN SERVICE WATER LOOP,Plant Supply,PIPE ADIABATIC 3 INLET WATER NODE,MAIN SERVICE WATER LOOP SUPPLY OUTLET NODE
 Branch List,15,MAIN SERVICE WATER LOOP DEMAND BRANCHES,MAIN SERVICE WATER LOOP,Plant Demand,6
   Branch,1,MAIN SERVICE WATER LOOP DEMAND INLET BRANCH,MAIN SERVICE WATER LOOP,Plant Demand,MAIN SERVICE WATER LOOP DEMAND INLET NODE,MAIN SERVICE WATER LOOP DEMAND INLET PIPE NODE
   Branch,2,MAIN SERVICE WATER LOOP DEMAND BRANCH 1,MAIN SERVICE WATER LOOP,Plant Demand,PIPE ADIABATIC 2 INLET WATER NODE,PIPE ADIABATIC 2 OUTLET WATER NODE
   Branch,3,MAIN SERVICE WATER LOOP DEMAND BRANCH 2,MAIN SERVICE WATER LOOP,Plant Demand,MAIN WUC 7.63GPM AT 140F INLET WATER NODE,MAIN WUC 7.63GPM AT 140F OUTLET WATER NODE
   Branch,4,MAIN SERVICE WATER LOOP DEMAND BRANCH 3,MAIN SERVICE WATER LOOP,Plant Demand,HX FOR BOOSTER WATER HEATING DEMAND INLET WATER NODE,MAINS WATER MAKEUP FOR SWH BOOSTER OUTLET WATER NODE
   Branch,5,MAIN SERVICE WATER LOOP DEMAND BYPASS BRANCH,MAIN SERVICE WATER LOOP,Plant Demand,MAIN SERVICE WATER LOOP DEMAND BYPASS PIPE INLET NODE,MAIN SERVICE WATER LOOP DEMAND BYPASS PIPE OUTLET NODE
   Branch,6,MAIN SERVICE WATER LOOP DEMAND OUTLET BRANCH,MAIN SERVICE WATER LOOP,Plant Demand,PIPE ADIABATIC 4 INLET WATER NODE,MAIN SERVICE WATER LOOP DEMAND OUTLET NODE
 Branch List,16,SERVICE WATER LOOP SUPPLY BRANCHES,SERVICE WATER LOOP,Plant Supply,4
   Branch,1,SERVICE WATER LOOP SUPPLY INLET BRANCH,SERVICE WATER LOOP,Plant Supply,SERVICE WATER LOOP SUPPLY INLET NODE,BOOSTER WATER LOOP PUMP OUTLET WATER NODE
   Branch,2,SERVICE WATER LOOP SUPPLY BRANCH 1,SERVICE WATER LOOP,Plant Supply,6.0GAL ELECTRICITY BOOSTER WATER HEATER - 48KBTU/HR 1.0 THERM EFF SUPPLY INLET WATER NODE,6.0GAL ELECTRICITY BOOSTER WATER HEATER - 48KBTU/HR 1.0 THERM EFF SUPPLY OUTLET WATER NODE
   Branch,3,SERVICE WATER LOOP SUPPLY BRANCH 2,SERVICE WATER LOOP,Plant Supply,PIPE ADIABATIC 5 INLET WATER NODE,PIPE ADIABATIC 5 OUTLET WATER NODE
   Branch,4,SERVICE WATER LOOP SUPPLY OUTLET BRANCH,SERVICE WATER LOOP,Plant Supply,PIPE ADIABATIC 7 INLET WATER NODE,SERVICE WATER LOOP SUPPLY OUTLET NODE
 Branch List,17,SERVICE WATER LOOP DEMAND BRANCHES,SERVICE WATER LOOP,Plant Demand,5
   Branch,1,SERVICE WATER LOOP DEMAND INLET BRANCH,SERVICE WATER LOOP,Plant Demand,SERVICE WATER LOOP DEMAND INLET NODE,PIPE ADIABATIC 8 OUTLET WATER NODE
   Branch,2,SERVICE WATER LOOP DEMAND BRANCH 1,SERVICE WATER LOOP,Plant Demand,PIPE ADIABATIC 6 INLET WATER NODE,PIPE ADIABATIC 6 OUTLET WATER NODE
   Branch,3,SERVICE WATER LOOP DEMAND BRANCH 2,SERVICE WATER LOOP,Plant Demand,WATER USE CONNECTIONS 1 INLET WATER NODE,WATER USE CONNECTIONS 1 OUTLET WATER NODE
   Branch,4,SERVICE WATER LOOP DEMAND BYPASS BRANCH,SERVICE WATER LOOP,Plant Demand,SERVICE WATER LOOP DEMAND BYPASS PIPE INLET NODE,SERVICE WATER LOOP DEMAND BYPASS PIPE OUTLET NODE
   Branch,5,SERVICE WATER LOOP DEMAND OUTLET BRANCH,SERVICE WATER LOOP,Plant Demand,PIPE ADIABATIC 9 INLET WATER NODE,SERVICE WATER LOOP DEMAND OUTLET NODE
! ===============================================================
! <#Supply Air Paths>,<Number of Supply Air Paths>
 #Supply Air Paths,9
! <Supply Air Path>,<Supply Air Path Count>,<Supply Air Path Name>,<AirLoopHVAC Name>
! <#Components on Supply Air Path>,<Number of Components>
! <Supply Air Path Component>,<Component Count>,<Component Type>,<Component Name>,<AirLoopHVAC Name>
! <#Outlet Nodes on Supply Air Path Component>,<Number of Nodes>
! <Supply Air Path Component Nodes>,<Node Count>,<Component Type>,<Component Name>,<Inlet Node Name>,<Outlet Node Name>,<AirLoopHVAC Name>
 Supply Air Path,1,AUDITORIUM_ZN_1_FLR_1 ZN PSZ-AC_3-7 AUDITORIUM_ZN_1_FLR_1 ZN PSZ-AC_3-7 DEMAND INLET NODE SUPPLY PATH,AUDITORIUM_ZN_1_FLR_1 ZN PSZ-AC_3-7
   #Components on Supply Air Path,1
   Supply Air Path Component,1,AIRLOOPHVAC:ZONESPLITTER,AIR LOOP HVAC ZONE SPLITTER 7,AUDITORIUM_ZN_1_FLR_1 ZN PSZ-AC_3-7
     #Outlet Nodes on Supply Air Path Component,1
     Supply Air Path Component Nodes,1,AIRLOOPHVAC:ZONESPLITTER,AIR LOOP HVAC ZONE SPLITTER 7,AUDITORIUM_ZN_1_FLR_1 ZN PSZ-AC_3-7 DEMAND INLET NODE,AUDITORIUM_ZN_1_FLR_1 ZN PSZ-AC_3-7 DIFFUSER INLET AIR NODE,AUDITORIUM_ZN_1_FLR_1 ZN PSZ-AC_3-7
! <#Nodes on Supply Air Path>,<Number of Nodes>
! <Supply Air Path Node>,<Node Type>,<Node Count>,<Node Name>,<AirLoopHVAC Name>
#Nodes on Supply Air Path,2
   Supply Air Path Node,Inlet Node,1,AUDITORIUM_ZN_1_FLR_1 ZN PSZ-AC_3-7 DEMAND INLET NODE,AUDITORIUM_ZN_1_FLR_1 ZN PSZ-AC_3-7
   Supply Air Path Node,Outlet Node,2,AUDITORIUM_ZN_1_FLR_1 ZN PSZ-AC_3-7 DIFFUSER INLET AIR NODE,AUDITORIUM_ZN_1_FLR_1 ZN PSZ-AC_3-7
 Supply Air Path,2,AUX_GYM_ZN_1_FLR_1 ZN PSZ-AC_2-6 AUX_GYM_ZN_1_FLR_1 ZN PSZ-AC_2-6 DEMAND INLET NODE SUPPLY PATH,AUX_GYM_ZN_1_FLR_1 ZN PSZ-AC_2-6
   #Components on Supply Air Path,1
   Supply Air Path Component,1,AIRLOOPHVAC:ZONESPLITTER,AIR LOOP HVAC ZONE SPLITTER 6,AUX_GYM_ZN_1_FLR_1 ZN PSZ-AC_2-6
     #Outlet Nodes on Supply Air Path Component,1
     Supply Air Path Component Nodes,1,AIRLOOPHVAC:ZONESPLITTER,AIR LOOP HVAC ZONE SPLITTER 6,AUX_GYM_ZN_1_FLR_1 ZN PSZ-AC_2-6 DEMAND INLET NODE,AUX_GYM_ZN_1_FLR_1 ZN PSZ-AC_2-6 DIFFUSER INLET AIR NODE,AUX_GYM_ZN_1_FLR_1 ZN PSZ-AC_2-6
! <#Nodes on Supply Air Path>,<Number of Nodes>
! <Supply Air Path Node>,<Node Type>,<Node Count>,<Node Name>,<AirLoopHVAC Name>
#Nodes on Supply Air Path,2
   Supply Air Path Node,Inlet Node,1,AUX_GYM_ZN_1_FLR_1 ZN PSZ-AC_2-6 DEMAND INLET NODE,AUX_GYM_ZN_1_FLR_1 ZN PSZ-AC_2-6
   Supply Air Path Node,Outlet Node,2,AUX_GYM_ZN_1_FLR_1 ZN PSZ-AC_2-6 DIFFUSER INLET AIR NODE,AUX_GYM_ZN_1_FLR_1 ZN PSZ-AC_2-6
 Supply Air Path,3,CAFETERIA_ZN_1_FLR_1 ZN PSZ-AC_5-9 CAFETERIA_ZN_1_FLR_1 ZN PSZ-AC_5-9 DEMAND INLET NODE SUPPLY PATH,CAFETERIA_ZN_1_FLR_1 ZN PSZ-AC_5-9
   #Components on Supply Air Path,1
   Supply Air Path Component,1,AIRLOOPHVAC:ZONESPLITTER,AIR LOOP HVAC ZONE SPLITTER 9,CAFETERIA_ZN_1_FLR_1 ZN PSZ-AC_5-9
     #Outlet Nodes on Supply Air Path Component,1
     Supply Air Path Component Nodes,1,AIRLOOPHVAC:ZONESPLITTER,AIR LOOP HVAC ZONE SPLITTER 9,CAFETERIA_ZN_1_FLR_1 ZN PSZ-AC_5-9 DEMAND INLET NODE,CAFETERIA_ZN_1_FLR_1 ZN PSZ-AC_5-9 DIFFUSER INLET AIR NODE,CAFETERIA_ZN_1_FLR_1 ZN PSZ-AC_5-9
! <#Nodes on Supply Air Path>,<Number of Nodes>
! <Supply Air Path Node>,<Node Type>,<Node Count>,<Node Name>,<AirLoopHVAC Name>
#Nodes on Supply Air Path,2
   Supply Air Path Node,Inlet Node,1,CAFETERIA_ZN_1_FLR_1 ZN PSZ-AC_5-9 DEMAND INLET NODE,CAFETERIA_ZN_1_FLR_1 ZN PSZ-AC_5-9
   Supply Air Path Node,Outlet Node,2,CAFETERIA_ZN_1_FLR_1 ZN PSZ-AC_5-9 DIFFUSER INLET AIR NODE,CAFETERIA_ZN_1_FLR_1 ZN PSZ-AC_5-9
 Supply Air Path,4,GYM_ZN_1_FLR_1 ZN PSZ-AC_1-5 GYM_ZN_1_FLR_1 ZN PSZ-AC_1-5 DEMAND INLET NODE SUPPLY PATH,GYM_ZN_1_FLR_1 ZN PSZ-AC_1-5
   #Components on Supply Air Path,1
   Supply Air Path Component,1,AIRLOOPHVAC:ZONESPLITTER,AIR LOOP HVAC ZONE SPLITTER 5,GYM_ZN_1_FLR_1 ZN PSZ-AC_1-5
     #Outlet Nodes on Supply Air Path Component,1
     Supply Air Path Component Nodes,1,AIRLOOPHVAC:ZONESPLITTER,AIR LOOP HVAC ZONE SPLITTER 5,GYM_ZN_1_FLR_1 ZN PSZ-AC_1-5 DEMAND INLET NODE,GYM_ZN_1_FLR_1 ZN PSZ-AC_1-5 DIFFUSER INLET AIR NODE,GYM_ZN_1_FLR_1 ZN PSZ-AC_1-5
! <#Nodes on Supply Air Path>,<Number of Nodes>
! <Supply Air Path Node>,<Node Type>,<Node Count>,<Node Name>,<AirLoopHVAC Name>
#Nodes on Supply Air Path,2
   Supply Air Path Node,Inlet Node,1,GYM_ZN_1_FLR_1 ZN PSZ-AC_1-5 DEMAND INLET NODE,GYM_ZN_1_FLR_1 ZN PSZ-AC_1-5
   Supply Air Path Node,Outlet Node,2,GYM_ZN_1_FLR_1 ZN PSZ-AC_1-5 DIFFUSER INLET AIR NODE,GYM_ZN_1_FLR_1 ZN PSZ-AC_1-5
 Supply Air Path,5,KITCHEN_ZN_1_FLR_1 ZN PSZ-AC_4-8 KITCHEN_ZN_1_FLR_1 ZN PSZ-AC_4-8 DEMAND INLET NODE SUPPLY PATH,KITCHEN_ZN_1_FLR_1 ZN PSZ-AC_4-8
   #Components on Supply Air Path,1
   Supply Air Path Component,1,AIRLOOPHVAC:ZONESPLITTER,AIR LOOP HVAC ZONE SPLITTER 8,KITCHEN_ZN_1_FLR_1 ZN PSZ-AC_4-8
     #Outlet Nodes on Supply Air Path Component,1
     Supply Air Path Component Nodes,1,AIRLOOPHVAC:ZONESPLITTER,AIR LOOP HVAC ZONE SPLITTER 8,KITCHEN_ZN_1_FLR_1 ZN PSZ-AC_4-8 DEMAND INLET NODE,KITCHEN_ZN_1_FLR_1 ZN PSZ-AC_4-8 DIFFUSER INLET AIR NODE,KITCHEN_ZN_1_FLR_1 ZN PSZ-AC_4-8
! <#Nodes on Supply Air Path>,<Number of Nodes>
! <Supply Air Path Node>,<Node Type>,<Node Count>,<Node Name>,<AirLoopHVAC Name>
#Nodes on Supply Air Path,2
   Supply Air Path Node,Inlet Node,1,KITCHEN_ZN_1_FLR_1 ZN PSZ-AC_4-8 DEMAND INLET NODE,KITCHEN_ZN_1_FLR_1 ZN PSZ-AC_4-8
   Supply Air Path Node,Outlet Node,2,KITCHEN_ZN_1_FLR_1 ZN PSZ-AC_4-8 DIFFUSER INLET AIR NODE,KITCHEN_ZN_1_FLR_1 ZN PSZ-AC_4-8
 Supply Air Path,6,VAV_OTHER VAV_OTHER DEMAND INLET NODE SUPPLY PATH,VAV_OTHER
   #Components on Supply Air Path,1
   Supply Air Path Component,1,AIRLOOPHVAC:ZONESPLITTER,AIR LOOP HVAC ZONE SPLITTER 4,VAV_OTHER
     #Outlet Nodes on Supply Air Path Component,11
     Supply Air Path Component Nodes,1,AIRLOOPHVAC:ZONESPLITTER,AIR LOOP HVAC ZONE SPLITTER 4,VAV_OTHER DEMAND INLET NODE,MAIN_CORRIDOR_ZN_1_FLR_1 ZN VAV TERMINAL INLET AIR NODE,VAV_OTHER
     Supply Air Path Component Nodes,2,AIRLOOPHVAC:ZONESPLITTER,AIR LOOP HVAC ZONE SPLITTER 4,VAV_OTHER DEMAND INLET NODE,MAIN_CORRIDOR_ZN_1_FLR_2 ZN VAV TERMINAL INLET AIR NODE,VAV_OTHER
     Supply Air Path Component Nodes,3,AIRLOOPHVAC:ZONESPLITTER,AIR LOOP HVAC ZONE SPLITTER 4,VAV_OTHER DEMAND INLET NODE,LOBBY_ZN_1_FLR_1 ZN VAV TERMINAL INLET AIR NODE,VAV_OTHER
     Supply Air Path Component Nodes,4,AIRLOOPHVAC:ZONESPLITTER,AIR LOOP HVAC ZONE SPLITTER 4,VAV_OTHER DEMAND INLET NODE,LOBBY_ZN_1_FLR_2 ZN VAV TERMINAL INLET AIR NODE,VAV_OTHER
     Supply Air Path Component Nodes,5,AIRLOOPHVAC:ZONESPLITTER,AIR LOOP HVAC ZONE SPLITTER 4,VAV_OTHER DEMAND INLET NODE,BATHROOMS_ZN_1_FLR_1 ZN VAV TERMINAL INLET AIR NODE,VAV_OTHER
     Supply Air Path Component Nodes,6,AIRLOOPHVAC:ZONESPLITTER,AIR LOOP HVAC ZONE SPLITTER 4,VAV_OTHER DEMAND INLET NODE,BATHROOMS_ZN_1_FLR_2 ZN VAV TERMINAL INLET AIR NODE,VAV_OTHER
     Supply Air Path Component Nodes,7,AIRLOOPHVAC:ZONESPLITTER,AIR LOOP HVAC ZONE SPLITTER 4,VAV_OTHER DEMAND INLET NODE,OFFICES_ZN_1_FLR_1 ZN VAV TERMINAL INLET AIR NODE,VAV_OTHER
     Supply Air Path Component Nodes,8,AIRLOOPHVAC:ZONESPLITTER,AIR LOOP HVAC ZONE SPLITTER 4,VAV_OTHER DEMAND INLET NODE,OFFICES_ZN_1_FLR_2 ZN VAV TERMINAL INLET AIR NODE,VAV_OTHER
     Supply Air Path Component Nodes,9,AIRLOOPHVAC:ZONESPLITTER,AIR LOOP HVAC ZONE SPLITTER 4,VAV_OTHER DEMAND INLET NODE,LIBRARY_MEDIA_CENTER_ZN_1_FLR_2 ZN VAV TERMINAL INLET AIR NODE,VAV_OTHER
     Supply Air Path Component Nodes,10,AIRLOOPHVAC:ZONESPLITTER,AIR LOOP HVAC ZONE SPLITTER 4,VAV_OTHER DEMAND INLET NODE,MECH_ZN_1_FLR_1 ZN VAV TERMINAL INLET AIR NODE,VAV_OTHER
     Supply Air Path Component Nodes,11,AIRLOOPHVAC:ZONESPLITTER,AIR LOOP HVAC ZONE SPLITTER 4,VAV_OTHER DEMAND INLET NODE,MECH_ZN_1_FLR_2 ZN VAV TERMINAL INLET AIR NODE,VAV_OTHER
! <#Nodes on Supply Air Path>,<Number of Nodes>
! <Supply Air Path Node>,<Node Type>,<Node Count>,<Node Name>,<AirLoopHVAC Name>
#Nodes on Supply Air Path,12
   Supply Air Path Node,Inlet Node,1,VAV_OTHER DEMAND INLET NODE,VAV_OTHER
   Supply Air Path Node,Outlet Node,2,MAIN_CORRIDOR_ZN_1_FLR_1 ZN VAV TERMINAL INLET AIR NODE,VAV_OTHER
   Supply Air Path Node,Outlet Node,3,MAIN_CORRIDOR_ZN_1_FLR_2 ZN VAV TERMINAL INLET AIR NODE,VAV_OTHER
   Supply Air Path Node,Outlet Node,4,LOBBY_ZN_1_FLR_1 ZN VAV TERMINAL INLET AIR NODE,VAV_OTHER
   Supply Air Path Node,Outlet Node,5,LOBBY_ZN_1_FLR_2 ZN VAV TERMINAL INLET AIR NODE,VAV_OTHER
   Supply Air Path Node,Outlet Node,6,BATHROOMS_ZN_1_FLR_1 ZN VAV TERMINAL INLET AIR NODE,VAV_OTHER
   Supply Air Path Node,Outlet Node,7,BATHROOMS_ZN_1_FLR_2 ZN VAV TERMINAL INLET AIR NODE,VAV_OTHER
   Supply Air Path Node,Outlet Node,8,OFFICES_ZN_1_FLR_1 ZN VAV TERMINAL INLET AIR NODE,VAV_OTHER
   Supply Air Path Node,Outlet Node,9,OFFICES_ZN_1_FLR_2 ZN VAV TERMINAL INLET AIR NODE,VAV_OTHER
   Supply Air Path Node,Outlet Node,10,LIBRARY_MEDIA_CENTER_ZN_1_FLR_2 ZN VAV TERMINAL INLET AIR NODE,VAV_OTHER
   Supply Air Path Node,Outlet Node,11,MECH_ZN_1_FLR_1 ZN VAV TERMINAL INLET AIR NODE,VAV_OTHER
   Supply Air Path Node,Outlet Node,12,MECH_ZN_1_FLR_2 ZN VAV TERMINAL INLET AIR NODE,VAV_OTHER
 Supply Air Path,7,VAV_POD_1 VAV_POD_1 DEMAND INLET NODE SUPPLY PATH,VAV_POD_1
   #Components on Supply Air Path,1
   Supply Air Path Component,1,AIRLOOPHVAC:ZONESPLITTER,AIR LOOP HVAC ZONE SPLITTER 1,VAV_POD_1
     #Outlet Nodes on Supply Air Path Component,10
     Supply Air Path Component Nodes,1,AIRLOOPHVAC:ZONESPLITTER,AIR LOOP HVAC ZONE SPLITTER 1,VAV_POD_1 DEMAND INLET NODE,CORNER_CLASS_1_POD_1_ZN_1_FLR_1 ZN VAV TERMINAL INLET AIR NODE,VAV_POD_1
     Supply Air Path Component Nodes,2,AIRLOOPHVAC:ZONESPLITTER,AIR LOOP HVAC ZONE SPLITTER 1,VAV_POD_1 DEMAND INLET NODE,CORNER_CLASS_1_POD_1_ZN_1_FLR_2 ZN VAV TERMINAL INLET AIR NODE,VAV_POD_1
     Supply Air Path Component Nodes,3,AIRLOOPHVAC:ZONESPLITTER,AIR LOOP HVAC ZONE SPLITTER 1,VAV_POD_1 DEMAND INLET NODE,MULT_CLASS_1_POD_1_ZN_1_FLR_1 ZN VAV TERMINAL INLET AIR NODE,VAV_POD_1
     Supply Air Path Component Nodes,4,AIRLOOPHVAC:ZONESPLITTER,AIR LOOP HVAC ZONE SPLITTER 1,VAV_POD_1 DEMAND INLET NODE,MULT_CLASS_1_POD_1_ZN_1_FLR_2 ZN VAV TERMINAL INLET AIR NODE,VAV_POD_1
     Supply Air Path Component Nodes,5,AIRLOOPHVAC:ZONESPLITTER,AIR LOOP HVAC ZONE SPLITTER 1,VAV_POD_1 DEMAND INLET NODE,CORRIDOR_POD_1_ZN_1_FLR_1 ZN VAV TERMINAL INLET AIR NODE,VAV_POD_1
     Supply Air Path Component Nodes,6,AIRLOOPHVAC:ZONESPLITTER,AIR LOOP HVAC ZONE SPLITTER 1,VAV_POD_1 DEMAND INLET NODE,CORRIDOR_POD_1_ZN_1_FLR_2 ZN VAV TERMINAL INLET AIR NODE,VAV_POD_1
     Supply Air Path Component Nodes,7,AIRLOOPHVAC:ZONESPLITTER,AIR LOOP HVAC ZONE SPLITTER 1,VAV_POD_1 DEMAND INLET NODE,CORNER_CLASS_2_POD_1_ZN_1_FLR_1 ZN VAV TERMINAL INLET AIR NODE,VAV_POD_1
     Supply Air Path Component Nodes,8,AIRLOOPHVAC:ZONESPLITTER,AIR LOOP HVAC ZONE SPLITTER 1,VAV_POD_1 DEMAND INLET NODE,CORNER_CLASS_2_POD_1_ZN_1_FLR_2 ZN VAV TERMINAL INLET AIR NODE,VAV_POD_1
     Supply Air Path Component Nodes,9,AIRLOOPHVAC:ZONESPLITTER,AIR LOOP HVAC ZONE SPLITTER 1,VAV_POD_1 DEMAND INLET NODE,MULT_CLASS_2_POD_1_ZN_1_FLR_1 ZN VAV TERMINAL INLET AIR NODE,VAV_POD_1
     Supply Air Path Component Nodes,10,AIRLOOPHVAC:ZONESPLITTER,AIR LOOP HVAC ZONE SPLITTER 1,VAV_POD_1 DEMAND INLET NODE,MULT_CLASS_2_POD_1_ZN_1_FLR_2 ZN VAV TERMINAL INLET AIR NODE,VAV_POD_1
! <#Nodes on Supply Air Path>,<Number of Nodes>
! <Supply Air Path Node>,<Node Type>,<Node Count>,<Node Name>,<AirLoopHVAC Name>
#Nodes on Supply Air Path,11
   Supply Air Path Node,Inlet Node,1,VAV_POD_1 DEMAND INLET NODE,VAV_POD_1
   Supply Air Path Node,Outlet Node,2,CORNER_CLASS_1_POD_1_ZN_1_FLR_1 ZN VAV TERMINAL INLET AIR NODE,VAV_POD_1
   Supply Air Path Node,Outlet Node,3,CORNER_CLASS_1_POD_1_ZN_1_FLR_2 ZN VAV TERMINAL INLET AIR NODE,VAV_POD_1
   Supply Air Path Node,Outlet Node,4,MULT_CLASS_1_POD_1_ZN_1_FLR_1 ZN VAV TERMINAL INLET AIR NODE,VAV_POD_1
   Supply Air Path Node,Outlet Node,5,MULT_CLASS_1_POD_1_ZN_1_FLR_2 ZN VAV TERMINAL INLET AIR NODE,VAV_POD_1
   Supply Air Path Node,Outlet Node,6,CORRIDOR_POD_1_ZN_1_FLR_1 ZN VAV TERMINAL INLET AIR NODE,VAV_POD_1
   Supply Air Path Node,Outlet Node,7,CORRIDOR_POD_1_ZN_1_FLR_2 ZN VAV TERMINAL INLET AIR NODE,VAV_POD_1
   Supply Air Path Node,Outlet Node,8,CORNER_CLASS_2_POD_1_ZN_1_FLR_1 ZN VAV TERMINAL INLET AIR NODE,VAV_POD_1
   Supply Air Path Node,Outlet Node,9,CORNER_CLASS_2_POD_1_ZN_1_FLR_2 ZN VAV TERMINAL INLET AIR NODE,VAV_POD_1
   Supply Air Path Node,Outlet Node,10,MULT_CLASS_2_POD_1_ZN_1_FLR_1 ZN VAV TERMINAL INLET AIR NODE,VAV_POD_1
   Supply Air Path Node,Outlet Node,11,MULT_CLASS_2_POD_1_ZN_1_FLR_2 ZN VAV TERMINAL INLET AIR NODE,VAV_POD_1
 Supply Air Path,8,VAV_POD_2 VAV_POD_2 DEMAND INLET NODE SUPPLY PATH,VAV_POD_2
   #Components on Supply Air Path,1
   Supply Air Path Component,1,AIRLOOPHVAC:ZONESPLITTER,AIR LOOP HVAC ZONE SPLITTER 2,VAV_POD_2
     #Outlet Nodes on Supply Air Path Component,10
     Supply Air Path Component Nodes,1,AIRLOOPHVAC:ZONESPLITTER,AIR LOOP HVAC ZONE SPLITTER 2,VAV_POD_2 DEMAND INLET NODE,CORNER_CLASS_1_POD_2_ZN_1_FLR_1 ZN VAV TERMINAL INLET AIR NODE,VAV_POD_2
     Supply Air Path Component Nodes,2,AIRLOOPHVAC:ZONESPLITTER,AIR LOOP HVAC ZONE SPLITTER 2,VAV_POD_2 DEMAND INLET NODE,CORNER_CLASS_1_POD_2_ZN_1_FLR_2 ZN VAV TERMINAL INLET AIR NODE,VAV_POD_2
     Supply Air Path Component Nodes,3,AIRLOOPHVAC:ZONESPLITTER,AIR LOOP HVAC ZONE SPLITTER 2,VAV_POD_2 DEMAND INLET NODE,MULT_CLASS_1_POD_2_ZN_1_FLR_1 ZN VAV TERMINAL INLET AIR NODE,VAV_POD_2
     Supply Air Path Component Nodes,4,AIRLOOPHVAC:ZONESPLITTER,AIR LOOP HVAC ZONE SPLITTER 2,VAV_POD_2 DEMAND INLET NODE,MULT_CLASS_1_POD_2_ZN_1_FLR_2 ZN VAV TERMINAL INLET AIR NODE,VAV_POD_2
     Supply Air Path Component Nodes,5,AIRLOOPHVAC:ZONESPLITTER,AIR LOOP HVAC ZONE SPLITTER 2,VAV_POD_2 DEMAND INLET NODE,CORRIDOR_POD_2_ZN_1_FLR_1 ZN VAV TERMINAL INLET AIR NODE,VAV_POD_2
     Supply Air Path Component Nodes,6,AIRLOOPHVAC:ZONESPLITTER,AIR LOOP HVAC ZONE SPLITTER 2,VAV_POD_2 DEMAND INLET NODE,CORRIDOR_POD_2_ZN_1_FLR_2 ZN VAV TERMINAL INLET AIR NODE,VAV_POD_2
     Supply Air Path Component Nodes,7,AIRLOOPHVAC:ZONESPLITTER,AIR LOOP HVAC ZONE SPLITTER 2,VAV_POD_2 DEMAND INLET NODE,CORNER_CLASS_2_POD_2_ZN_1_FLR_1 ZN VAV TERMINAL INLET AIR NODE,VAV_POD_2
     Supply Air Path Component Nodes,8,AIRLOOPHVAC:ZONESPLITTER,AIR LOOP HVAC ZONE SPLITTER 2,VAV_POD_2 DEMAND INLET NODE,CORNER_CLASS_2_POD_2_ZN_1_FLR_2 ZN VAV TERMINAL INLET AIR NODE,VAV_POD_2
     Supply Air Path Component Nodes,9,AIRLOOPHVAC:ZONESPLITTER,AIR LOOP HVAC ZONE SPLITTER 2,VAV_POD_2 DEMAND INLET NODE,MULT_CLASS_2_POD_2_ZN_1_FLR_1 ZN VAV TERMINAL INLET AIR NODE,VAV_POD_2
     Supply Air Path Component Nodes,10,AIRLOOPHVAC:ZONESPLITTER,AIR LOOP HVAC ZONE SPLITTER 2,VAV_POD_2 DEMAND INLET NODE,MULT_CLASS_2_POD_2_ZN_1_FLR_2 ZN VAV TERMINAL INLET AIR NODE,VAV_POD_2
! <#Nodes on Supply Air Path>,<Number of Nodes>
! <Supply Air Path Node>,<Node Type>,<Node Count>,<Node Name>,<AirLoopHVAC Name>
#Nodes on Supply Air Path,11
   Supply Air Path Node,Inlet Node,1,VAV_POD_2 DEMAND INLET NODE,VAV_POD_2
   Supply Air Path Node,Outlet Node,2,CORNER_CLASS_1_POD_2_ZN_1_FLR_1 ZN VAV TERMINAL INLET AIR NODE,VAV_POD_2
   Supply Air Path Node,Outlet Node,3,CORNER_CLASS_1_POD_2_ZN_1_FLR_2 ZN VAV TERMINAL INLET AIR NODE,VAV_POD_2
   Supply Air Path Node,Outlet Node,4,MULT_CLASS_1_POD_2_ZN_1_FLR_1 ZN VAV TERMINAL INLET AIR NODE,VAV_POD_2
   Supply Air Path Node,Outlet Node,5,MULT_CLASS_1_POD_2_ZN_1_FLR_2 ZN VAV TERMINAL INLET AIR NODE,VAV_POD_2
   Supply Air Path Node,Outlet Node,6,CORRIDOR_POD_2_ZN_1_FLR_1 ZN VAV TERMINAL INLET AIR NODE,VAV_POD_2
   Supply Air Path Node,Outlet Node,7,CORRIDOR_POD_2_ZN_1_FLR_2 ZN VAV TERMINAL INLET AIR NODE,VAV_POD_2
   Supply Air Path Node,Outlet Node,8,CORNER_CLASS_2_POD_2_ZN_1_FLR_1 ZN VAV TERMINAL INLET AIR NODE,VAV_POD_2
   Supply Air Path Node,Outlet Node,9,CORNER_CLASS_2_POD_2_ZN_1_FLR_2 ZN VAV TERMINAL INLET AIR NODE,VAV_POD_2
   Supply Air Path Node,Outlet Node,10,MULT_CLASS_2_POD_2_ZN_1_FLR_1 ZN VAV TERMINAL INLET AIR NODE,VAV_POD_2
   Supply Air Path Node,Outlet Node,11,MULT_CLASS_2_POD_2_ZN_1_FLR_2 ZN VAV TERMINAL INLET AIR NODE,VAV_POD_2
 Supply Air Path,9,VAV_POD_3 VAV_POD_3 DEMAND INLET NODE SUPPLY PATH,VAV_POD_3
   #Components on Supply Air Path,1
   Supply Air Path Component,1,AIRLOOPHVAC:ZONESPLITTER,AIR LOOP HVAC ZONE SPLITTER 3,VAV_POD_3
     #Outlet Nodes on Supply Air Path Component,10
     Supply Air Path Component Nodes,1,AIRLOOPHVAC:ZONESPLITTER,AIR LOOP HVAC ZONE SPLITTER 3,VAV_POD_3 DEMAND INLET NODE,CORNER_CLASS_1_POD_3_ZN_1_FLR_1 ZN VAV TERMINAL INLET AIR NODE,VAV_POD_3
     Supply Air Path Component Nodes,2,AIRLOOPHVAC:ZONESPLITTER,AIR LOOP HVAC ZONE SPLITTER 3,VAV_POD_3 DEMAND INLET NODE,CORNER_CLASS_1_POD_3_ZN_1_FLR_2 ZN VAV TERMINAL INLET AIR NODE,VAV_POD_3
     Supply Air Path Component Nodes,3,AIRLOOPHVAC:ZONESPLITTER,AIR LOOP HVAC ZONE SPLITTER 3,VAV_POD_3 DEMAND INLET NODE,MULT_CLASS_1_POD_3_ZN_1_FLR_1 ZN VAV TERMINAL INLET AIR NODE,VAV_POD_3
     Supply Air Path Component Nodes,4,AIRLOOPHVAC:ZONESPLITTER,AIR LOOP HVAC ZONE SPLITTER 3,VAV_POD_3 DEMAND INLET NODE,MULT_CLASS_1_POD_3_ZN_1_FLR_2 ZN VAV TERMINAL INLET AIR NODE,VAV_POD_3
     Supply Air Path Component Nodes,5,AIRLOOPHVAC:ZONESPLITTER,AIR LOOP HVAC ZONE SPLITTER 3,VAV_POD_3 DEMAND INLET NODE,CORRIDOR_POD_3_ZN_1_FLR_1 ZN VAV TERMINAL INLET AIR NODE,VAV_POD_3
     Supply Air Path Component Nodes,6,AIRLOOPHVAC:ZONESPLITTER,AIR LOOP HVAC ZONE SPLITTER 3,VAV_POD_3 DEMAND INLET NODE,CORRIDOR_POD_3_ZN_1_FLR_2 ZN VAV TERMINAL INLET AIR NODE,VAV_POD_3
     Supply Air Path Component Nodes,7,AIRLOOPHVAC:ZONESPLITTER,AIR LOOP HVAC ZONE SPLITTER 3,VAV_POD_3 DEMAND INLET NODE,CORNER_CLASS_2_POD_3_ZN_1_FLR_1 ZN VAV TERMINAL INLET AIR NODE,VAV_POD_3
     Supply Air Path Component Nodes,8,AIRLOOPHVAC:ZONESPLITTER,AIR LOOP HVAC ZONE SPLITTER 3,VAV_POD_3 DEMAND INLET NODE,CORNER_CLASS_2_POD_3_ZN_1_FLR_2 ZN VAV TERMINAL INLET AIR NODE,VAV_POD_3
     Supply Air Path Component Nodes,9,AIRLOOPHVAC:ZONESPLITTER,AIR LOOP HVAC ZONE SPLITTER 3,VAV_POD_3 DEMAND INLET NODE,MULT_CLASS_2_POD_3_ZN_1_FLR_1 ZN VAV TERMINAL INLET AIR NODE,VAV_POD_3
     Supply Air Path Component Nodes,10,AIRLOOPHVAC:ZONESPLITTER,AIR LOOP HVAC ZONE SPLITTER 3,VAV_POD_3 DEMAND INLET NODE,MULT_CLASS_2_POD_3_ZN_1_FLR_2 ZN VAV TERMINAL INLET AIR NODE,VAV_POD_3
! <#Nodes on Supply Air Path>,<Number of Nodes>
! <Supply Air Path Node>,<Node Type>,<Node Count>,<Node Name>,<AirLoopHVAC Name>
#Nodes on Supply Air Path,11
   Supply Air Path Node,Inlet Node,1,VAV_POD_3 DEMAND INLET NODE,VAV_POD_3
   Supply Air Path Node,Outlet Node,2,CORNER_CLASS_1_POD_3_ZN_1_FLR_1 ZN VAV TERMINAL INLET AIR NODE,VAV_POD_3
   Supply Air Path Node,Outlet Node,3,CORNER_CLASS_1_POD_3_ZN_1_FLR_2 ZN VAV TERMINAL INLET AIR NODE,VAV_POD_3
   Supply Air Path Node,Outlet Node,4,MULT_CLASS_1_POD_3_ZN_1_FLR_1 ZN VAV TERMINAL INLET AIR NODE,VAV_POD_3
   Supply Air Path Node,Outlet Node,5,MULT_CLASS_1_POD_3_ZN_1_FLR_2 ZN VAV TERMINAL INLET AIR NODE,VAV_POD_3
   Supply Air Path Node,Outlet Node,6,CORRIDOR_POD_3_ZN_1_FLR_1 ZN VAV TERMINAL INLET AIR NODE,VAV_POD_3
   Supply Air Path Node,Outlet Node,7,CORRIDOR_POD_3_ZN_1_FLR_2 ZN VAV TERMINAL INLET AIR NODE,VAV_POD_3
   Supply Air Path Node,Outlet Node,8,CORNER_CLASS_2_POD_3_ZN_1_FLR_1 ZN VAV TERMINAL INLET AIR NODE,VAV_POD_3
   Supply Air Path Node,Outlet Node,9,CORNER_CLASS_2_POD_3_ZN_1_FLR_2 ZN VAV TERMINAL INLET AIR NODE,VAV_POD_3
   Supply Air Path Node,Outlet Node,10,MULT_CLASS_2_POD_3_ZN_1_FLR_1 ZN VAV TERMINAL INLET AIR NODE,VAV_POD_3
   Supply Air Path Node,Outlet Node,11,MULT_CLASS_2_POD_3_ZN_1_FLR_2 ZN VAV TERMINAL INLET AIR NODE,VAV_POD_3
! ===============================================================
! <#Return Air Paths>,<Number of Return Air Paths>
 #Return Air Paths,9
! <Return Air Path>,<Return Air Path Count>,<Return Air Path Name>,<AirLoopHVAC Name>
! <#Components on Return Air Path>,<Number of Components>
! <Return Air Path Component>,<Component Count>,<Component Type>,<Component Name>,<AirLoopHVAC Name>
! <#Inlet Nodes on Return Air Path Component>,<Number of Nodes>
! <Return Air Path Component Nodes>,<Node Count>,<Component Type>,<Component Name>,<Inlet Node Name>,<Outlet Node Name>,<AirLoopHVAC Name>
 Return Air Path,1,AUDITORIUM_ZN_1_FLR_1 ZN PSZ-AC_3-7 RETURN PATH,AUDITORIUM_ZN_1_FLR_1 ZN PSZ-AC_3-7
   #Components on Return Air Path,1
   Return Air Path Component,1,AIRLOOPHVAC:ZONEMIXER,AIR LOOP HVAC ZONE MIXER 7,AUDITORIUM_ZN_1_FLR_1 ZN PSZ-AC_3-7
     #Inlet Nodes on Return Air Path Component,1
     Return Air Path Component Nodes,1,AIRLOOPHVAC:ZONEMIXER,AIR LOOP HVAC ZONE MIXER 7,AUDITORIUM_ZN_1_FLR_1 ZN RETURN AIR NODE,AUDITORIUM_ZN_1_FLR_1 ZN PSZ-AC_3-7 DEMAND OUTLET NODE,AUDITORIUM_ZN_1_FLR_1 ZN PSZ-AC_3-7
! <#Nodes on Return Air Path>,<Number of Nodes>
! <Return Air Path Node>,<Node Type>,<Node Count>,<Node Name>,<AirLoopHVAC Name>
   #Nodes on Return Air Path,2
   Return Air Path Node,Outlet Node,1,AUDITORIUM_ZN_1_FLR_1 ZN PSZ-AC_3-7 DEMAND OUTLET NODE,AUDITORIUM_ZN_1_FLR_1 ZN PSZ-AC_3-7
   Return Air Path Node,Inlet Node,2,AUDITORIUM_ZN_1_FLR_1 ZN RETURN AIR NODE,AUDITORIUM_ZN_1_FLR_1 ZN PSZ-AC_3-7
 Return Air Path,2,AUX_GYM_ZN_1_FLR_1 ZN PSZ-AC_2-6 RETURN PATH,AUX_GYM_ZN_1_FLR_1 ZN PSZ-AC_2-6
   #Components on Return Air Path,1
   Return Air Path Component,1,AIRLOOPHVAC:ZONEMIXER,AIR LOOP HVAC ZONE MIXER 6,AUX_GYM_ZN_1_FLR_1 ZN PSZ-AC_2-6
     #Inlet Nodes on Return Air Path Component,1
     Return Air Path Component Nodes,1,AIRLOOPHVAC:ZONEMIXER,AIR LOOP HVAC ZONE MIXER 6,AUX_GYM_ZN_1_FLR_1 ZN RETURN AIR NODE,AUX_GYM_ZN_1_FLR_1 ZN PSZ-AC_2-6 DEMAND OUTLET NODE,AUX_GYM_ZN_1_FLR_1 ZN PSZ-AC_2-6
! <#Nodes on Return Air Path>,<Number of Nodes>
! <Return Air Path Node>,<Node Type>,<Node Count>,<Node Name>,<AirLoopHVAC Name>
   #Nodes on Return Air Path,2
   Return Air Path Node,Outlet Node,1,AUX_GYM_ZN_1_FLR_1 ZN PSZ-AC_2-6 DEMAND OUTLET NODE,AUX_GYM_ZN_1_FLR_1 ZN PSZ-AC_2-6
   Return Air Path Node,Inlet Node,2,AUX_GYM_ZN_1_FLR_1 ZN RETURN AIR NODE,AUX_GYM_ZN_1_FLR_1 ZN PSZ-AC_2-6
 Return Air Path,3,CAFETERIA_ZN_1_FLR_1 ZN PSZ-AC_5-9 RETURN PATH,CAFETERIA_ZN_1_FLR_1 ZN PSZ-AC_5-9
   #Components on Return Air Path,1
   Return Air Path Component,1,AIRLOOPHVAC:ZONEMIXER,AIR LOOP HVAC ZONE MIXER 9,CAFETERIA_ZN_1_FLR_1 ZN PSZ-AC_5-9
     #Inlet Nodes on Return Air Path Component,1
     Return Air Path Component Nodes,1,AIRLOOPHVAC:ZONEMIXER,AIR LOOP HVAC ZONE MIXER 9,CAFETERIA_ZN_1_FLR_1 ZN RETURN AIR NODE,CAFETERIA_ZN_1_FLR_1 ZN PSZ-AC_5-9 DEMAND OUTLET NODE,CAFETERIA_ZN_1_FLR_1 ZN PSZ-AC_5-9
! <#Nodes on Return Air Path>,<Number of Nodes>
! <Return Air Path Node>,<Node Type>,<Node Count>,<Node Name>,<AirLoopHVAC Name>
   #Nodes on Return Air Path,2
   Return Air Path Node,Outlet Node,1,CAFETERIA_ZN_1_FLR_1 ZN PSZ-AC_5-9 DEMAND OUTLET NODE,CAFETERIA_ZN_1_FLR_1 ZN PSZ-AC_5-9
   Return Air Path Node,Inlet Node,2,CAFETERIA_ZN_1_FLR_1 ZN RETURN AIR NODE,CAFETERIA_ZN_1_FLR_1 ZN PSZ-AC_5-9
 Return Air Path,4,GYM_ZN_1_FLR_1 ZN PSZ-AC_1-5 RETURN PATH,GYM_ZN_1_FLR_1 ZN PSZ-AC_1-5
   #Components on Return Air Path,1
   Return Air Path Component,1,AIRLOOPHVAC:ZONEMIXER,AIR LOOP HVAC ZONE MIXER 5,GYM_ZN_1_FLR_1 ZN PSZ-AC_1-5
     #Inlet Nodes on Return Air Path Component,1
     Return Air Path Component Nodes,1,AIRLOOPHVAC:ZONEMIXER,AIR LOOP HVAC ZONE MIXER 5,GYM_ZN_1_FLR_1 ZN RETURN AIR NODE,GYM_ZN_1_FLR_1 ZN PSZ-AC_1-5 DEMAND OUTLET NODE,GYM_ZN_1_FLR_1 ZN PSZ-AC_1-5
! <#Nodes on Return Air Path>,<Number of Nodes>
! <Return Air Path Node>,<Node Type>,<Node Count>,<Node Name>,<AirLoopHVAC Name>
   #Nodes on Return Air Path,2
   Return Air Path Node,Outlet Node,1,GYM_ZN_1_FLR_1 ZN PSZ-AC_1-5 DEMAND OUTLET NODE,GYM_ZN_1_FLR_1 ZN PSZ-AC_1-5
[...]
 Non-Parent Node Connection,VAV_POD_3 DEMAND OUTLET NODE,AIRLOOPHVAC:ZONEMIXER,AIR LOOP HVAC ZONE MIXER 3,Outlet,1
 Non-Parent Node Connection,CORNER_CLASS_1_POD_3_ZN_1_FLR_1 ZN RETURN AIR NODE,AIRLOOPHVAC:ZONEMIXER,AIR LOOP HVAC ZONE MIXER 3,Inlet,1
 Non-Parent Node Connection,CORNER_CLASS_1_POD_3_ZN_1_FLR_2 ZN RETURN AIR NODE,AIRLOOPHVAC:ZONEMIXER,AIR LOOP HVAC ZONE MIXER 3,Inlet,1
 Non-Parent Node Connection,MULT_CLASS_1_POD_3_ZN_1_FLR_1 ZN RETURN AIR NODE,AIRLOOPHVAC:ZONEMIXER,AIR LOOP HVAC ZONE MIXER 3,Inlet,1
 Non-Parent Node Connection,MULT_CLASS_1_POD_3_ZN_1_FLR_2 ZN RETURN AIR NODE,AIRLOOPHVAC:ZONEMIXER,AIR LOOP HVAC ZONE MIXER 3,Inlet,1
 Non-Parent Node Connection,CORRIDOR_POD_3_ZN_1_FLR_1 ZN RETURN AIR NODE,AIRLOOPHVAC:ZONEMIXER,AIR LOOP HVAC ZONE MIXER 3,Inlet,1
 Non-Parent Node Connection,CORRIDOR_POD_3_ZN_1_FLR_2 ZN RETURN AIR NODE,AIRLOOPHVAC:ZONEMIXER,AIR LOOP HVAC ZONE MIXER 3,Inlet,1
 Non-Parent Node Connection,CORNER_CLASS_2_POD_3_ZN_1_FLR_1 ZN RETURN AIR NODE,AIRLOOPHVAC:ZONEMIXER,AIR LOOP HVAC ZONE MIXER 3,Inlet,1
 Non-Parent Node Connection,CORNER_CLASS_2_POD_3_ZN_1_FLR_2 ZN RETURN AIR NODE,AIRLOOPHVAC:ZONEMIXER,AIR LOOP HVAC ZONE MIXER 3,Inlet,1
 Non-Parent Node Connection,MULT_CLASS_2_POD_3_ZN_1_FLR_1 ZN RETURN AIR NODE,AIRLOOPHVAC:ZONEMIXER,AIR LOOP HVAC ZONE MIXER 3,Inlet,1
 Non-Parent Node Connection,MULT_CLASS_2_POD_3_ZN_1_FLR_2 ZN RETURN AIR NODE,AIRLOOPHVAC:ZONEMIXER,AIR LOOP HVAC ZONE MIXER 3,Inlet,1
 Non-Parent Node Connection,AUDITORIUM_ZN_1_FLR_1 ZN PSZ-AC_3-7 MIXED AIR NODE,OUTDOORAIR:MIXER,AUDITORIUM_ZN_1_FLR_1 ZN PSZ-AC_3-7 OA SYSTEM OUTDOOR AIR MIXER,Outlet,1
 Non-Parent Node Connection,AUDITORIUM_ZN_1_FLR_1 ZN PSZ-AC_3-7 OUTDOOR AIR NODE,OUTDOORAIR:MIXER,AUDITORIUM_ZN_1_FLR_1 ZN PSZ-AC_3-7 OA SYSTEM OUTDOOR AIR MIXER,Inlet,1
 Non-Parent Node Connection,AUDITORIUM_ZN_1_FLR_1 ZN PSZ-AC_3-7 RELIEF AIR NODE,OUTDOORAIR:MIXER,AUDITORIUM_ZN_1_FLR_1 ZN PSZ-AC_3-7 OA SYSTEM OUTDOOR AIR MIXER,ReliefAir,1
 Non-Parent Node Connection,AUDITORIUM_ZN_1_FLR_1 ZN PSZ-AC_3-7 SUPPLY INLET NODE,OUTDOORAIR:MIXER,AUDITORIUM_ZN_1_FLR_1 ZN PSZ-AC_3-7 OA SYSTEM OUTDOOR AIR MIXER,Inlet,1
 Non-Parent Node Connection,AUX_GYM_ZN_1_FLR_1 ZN PSZ-AC_2-6 MIXED AIR NODE,OUTDOORAIR:MIXER,AUX_GYM_ZN_1_FLR_1 ZN PSZ-AC_2-6 OA SYSTEM OUTDOOR AIR MIXER,Outlet,1
 Non-Parent Node Connection,AUX_GYM_ZN_1_FLR_1 ZN PSZ-AC_2-6 OUTDOOR AIR NODE,OUTDOORAIR:MIXER,AUX_GYM_ZN_1_FLR_1 ZN PSZ-AC_2-6 OA SYSTEM OUTDOOR AIR MIXER,Inlet,1
 Non-Parent Node Connection,AUX_GYM_ZN_1_FLR_1 ZN PSZ-AC_2-6 RELIEF AIR NODE,OUTDOORAIR:MIXER,AUX_GYM_ZN_1_FLR_1 ZN PSZ-AC_2-6 OA SYSTEM OUTDOOR AIR MIXER,ReliefAir,1
 Non-Parent Node Connection,AUX_GYM_ZN_1_FLR_1 ZN PSZ-AC_2-6 SUPPLY INLET NODE,OUTDOORAIR:MIXER,AUX_GYM_ZN_1_FLR_1 ZN PSZ-AC_2-6 OA SYSTEM OUTDOOR AIR MIXER,Inlet,1
 Non-Parent Node Connection,CAFETERIA_ZN_1_FLR_1 ZN PSZ-AC_5-9 MIXED AIR NODE,OUTDOORAIR:MIXER,CAFETERIA_ZN_1_FLR_1 ZN PSZ-AC_5-9 OA SYSTEM OUTDOOR AIR MIXER,Outlet,1
 Non-Parent Node Connection,CAFETERIA_ZN_1_FLR_1 ZN PSZ-AC_5-9 OUTDOOR AIR NODE,OUTDOORAIR:MIXER,CAFETERIA_ZN_1_FLR_1 ZN PSZ-AC_5-9 OA SYSTEM OUTDOOR AIR MIXER,Inlet,1
 Non-Parent Node Connection,CAFETERIA_ZN_1_FLR_1 ZN PSZ-AC_5-9 RELIEF AIR NODE,OUTDOORAIR:MIXER,CAFETERIA_ZN_1_FLR_1 ZN PSZ-AC_5-9 OA SYSTEM OUTDOOR AIR MIXER,ReliefAir,1
 Non-Parent Node Connection,CAFETERIA_ZN_1_FLR_1 ZN PSZ-AC_5-9 SUPPLY INLET NODE,OUTDOORAIR:MIXER,CAFETERIA_ZN_1_FLR_1 ZN PSZ-AC_5-9 OA SYSTEM OUTDOOR AIR MIXER,Inlet,1
 Non-Parent Node Connection,GYM_ZN_1_FLR_1 ZN PSZ-AC_1-5 MIXED AIR NODE,OUTDOORAIR:MIXER,GYM_ZN_1_FLR_1 ZN PSZ-AC_1-5 OA SYSTEM OUTDOOR AIR MIXER,Outlet,1
 Non-Parent Node Connection,GYM_ZN_1_FLR_1 ZN PSZ-AC_1-5 OUTDOOR AIR NODE,OUTDOORAIR:MIXER,GYM_ZN_1_FLR_1 ZN PSZ-AC_1-5 OA SYSTEM OUTDOOR AIR MIXER,Inlet,1
 Non-Parent Node Connection,GYM_ZN_1_FLR_1 ZN PSZ-AC_1-5 RELIEF AIR NODE,OUTDOORAIR:MIXER,GYM_ZN_1_FLR_1 ZN PSZ-AC_1-5 OA SYSTEM OUTDOOR AIR MIXER,ReliefAir,1
 Non-Parent Node Connection,GYM_ZN_1_FLR_1 ZN PSZ-AC_1-5 SUPPLY INLET NODE,OUTDOORAIR:MIXER,GYM_ZN_1_FLR_1 ZN PSZ-AC_1-5 OA SYSTEM OUTDOOR AIR MIXER,Inlet,1
 Non-Parent Node Connection,KITCHEN_ZN_1_FLR_1 ZN PSZ-AC_4-8 MIXED AIR NODE,OUTDOORAIR:MIXER,KITCHEN_ZN_1_FLR_1 ZN PSZ-AC_4-8 OA SYSTEM OUTDOOR AIR MIXER,Outlet,1
 Non-Parent Node Connection,KITCHEN_ZN_1_FLR_1 ZN PSZ-AC_4-8 OUTDOOR AIR NODE,OUTDOORAIR:MIXER,KITCHEN_ZN_1_FLR_1 ZN PSZ-AC_4-8 OA SYSTEM OUTDOOR AIR MIXER,Inlet,1
 Non-Parent Node Connection,KITCHEN_ZN_1_FLR_1 ZN PSZ-AC_4-8 RELIEF AIR NODE,OUTDOORAIR:MIXER,KITCHEN_ZN_1_FLR_1 ZN PSZ-AC_4-8 OA SYSTEM OUTDOOR AIR MIXER,ReliefAir,1
 Non-Parent Node Connection,KITCHEN_ZN_1_FLR_1 ZN PSZ-AC_4-8 SUPPLY INLET NODE,OUTDOORAIR:MIXER,KITCHEN_ZN_1_FLR_1 ZN PSZ-AC_4-8 OA SYSTEM OUTDOOR AIR MIXER,Inlet,1
 Non-Parent Node Connection,VAV_OTHER MIXED AIR NODE,OUTDOORAIR:MIXER,VAV_OTHER OA SYSTEM OUTDOOR AIR MIXER,Outlet,1
 Non-Parent Node Connection,VAV_OTHER OUTDOOR AIR NODE,OUTDOORAIR:MIXER,VAV_OTHER OA SYSTEM OUTDOOR AIR MIXER,Inlet,1
 Non-Parent Node Connection,VAV_OTHER RELIEF AIR NODE,OUTDOORAIR:MIXER,VAV_OTHER OA SYSTEM OUTDOOR AIR MIXER,ReliefAir,1
 Non-Parent Node Connection,VAV_OTHER SUPPLY INLET NODE,OUTDOORAIR:MIXER,VAV_OTHER OA SYSTEM OUTDOOR AIR MIXER,Inlet,1
 Non-Parent Node Connection,VAV_POD_1 MIXED AIR NODE,OUTDOORAIR:MIXER,VAV_POD_1 OA SYSTEM OUTDOOR AIR MIXER,Outlet,1
 Non-Parent Node Connection,VAV_POD_1 OUTDOOR AIR NODE,OUTDOORAIR:MIXER,VAV_POD_1 OA SYSTEM OUTDOOR AIR MIXER,Inlet,1
 Non-Parent Node Connection,VAV_POD_1 RELIEF AIR NODE,OUTDOORAIR:MIXER,VAV_POD_1 OA SYSTEM OUTDOOR AIR MIXER,ReliefAir,1
 Non-Parent Node Connection,VAV_POD_1 SUPPLY INLET NODE,OUTDOORAIR:MIXER,VAV_POD_1 OA SYSTEM OUTDOOR AIR MIXER,Inlet,1
 Non-Parent Node Connection,VAV_POD_2 MIXED AIR NODE,OUTDOORAIR:MIXER,VAV_POD_2 OA SYSTEM OUTDOOR AIR MIXER,Outlet,1
 Non-Parent Node Connection,VAV_POD_2 OUTDOOR AIR NODE,OUTDOORAIR:MIXER,VAV_POD_2 OA SYSTEM OUTDOOR AIR MIXER,Inlet,1
 Non-Parent Node Connection,VAV_POD_2 RELIEF AIR NODE,OUTDOORAIR:MIXER,VAV_POD_2 OA SYSTEM OUTDOOR AIR MIXER,ReliefAir,1
 Non-Parent Node Connection,VAV_POD_2 SUPPLY INLET NODE,OUTDOORAIR:MIXER,VAV_POD_2 OA SYSTEM OUTDOOR AIR MIXER,Inlet,1
 Non-Parent Node Connection,VAV_POD_3 MIXED AIR NODE,OUTDOORAIR:MIXER,VAV_POD_3 OA SYSTEM OUTDOOR AIR MIXER,Outlet,1
 Non-Parent Node Connection,VAV_POD_3 OUTDOOR AIR NODE,OUTDOORAIR:MIXER,VAV_POD_3 OA SYSTEM OUTDOOR AIR MIXER,Inlet,1
 Non-Parent Node Connection,VAV_POD_3 RELIEF AIR NODE,OUTDOORAIR:MIXER,VAV_POD_3 OA SYSTEM OUTDOOR AIR MIXER,ReliefAir,1
 Non-Parent Node Connection,VAV_POD_3 SUPPLY INLET NODE,OUTDOORAIR:MIXER,VAV_POD_3 OA SYSTEM OUTDOOR AIR MIXER,Inlet,1
 Non-Parent Node Connection,AUDITORIUM_ZN_1_FLR_1 ZN PSZ-AC_3-7 MIXED AIR NODE,CONTROLLER:OUTDOORAIR,AUDITORIUM_ZN_1_FLR_1 ZN PSZ-AC_3-7 OA SYSTEM CONTROLLER,Sensor,1
 Non-Parent Node Connection,AUDITORIUM_ZN_1_FLR_1 ZN PSZ-AC_3-7 OUTDOOR AIR NODE,CONTROLLER:OUTDOORAIR,AUDITORIUM_ZN_1_FLR_1 ZN PSZ-AC_3-7 OA SYSTEM CONTROLLER,Actuator,1
 Non-Parent Node Connection,AUDITORIUM_ZN_1_FLR_1 ZN PSZ-AC_3-7 RELIEF AIR NODE,CONTROLLER:OUTDOORAIR,AUDITORIUM_ZN_1_FLR_1 ZN PSZ-AC_3-7 OA SYSTEM CONTROLLER,Actuator,1
 Non-Parent Node Connection,AUDITORIUM_ZN_1_FLR_1 ZN PSZ-AC_3-7 SUPPLY INLET NODE,CONTROLLER:OUTDOORAIR,AUDITORIUM_ZN_1_FLR_1 ZN PSZ-AC_3-7 OA SYSTEM CONTROLLER,Sensor,1
 Non-Parent Node Connection,AUX_GYM_ZN_1_FLR_1 ZN PSZ-AC_2-6 MIXED AIR NODE,CONTROLLER:OUTDOORAIR,AUX_GYM_ZN_1_FLR_1 ZN PSZ-AC_2-6 OA SYSTEM CONTROLLER,Sensor,1
 Non-Parent Node Connection,AUX_GYM_ZN_1_FLR_1 ZN PSZ-AC_2-6 OUTDOOR AIR NODE,CONTROLLER:OUTDOORAIR,AUX_GYM_ZN_1_FLR_1 ZN PSZ-AC_2-6 OA SYSTEM CONTROLLER,Actuator,1
 Non-Parent Node Connection,AUX_GYM_ZN_1_FLR_1 ZN PSZ-AC_2-6 RELIEF AIR NODE,CONTROLLER:OUTDOORAIR,AUX_GYM_ZN_1_FLR_1 ZN PSZ-AC_2-6 OA SYSTEM CONTROLLER,Actuator,1
 Non-Parent Node Connection,AUX_GYM_ZN_1_FLR_1 ZN PSZ-AC_2-6 SUPPLY INLET NODE,CONTROLLER:OUTDOORAIR,AUX_GYM_ZN_1_FLR_1 ZN PSZ-AC_2-6 OA SYSTEM CONTROLLER,Sensor,1
 Non-Parent Node Connection,CAFETERIA_ZN_1_FLR_1 ZN PSZ-AC_5-9 MIXED AIR NODE,CONTROLLER:OUTDOORAIR,CAFETERIA_ZN_1_FLR_1 ZN PSZ-AC_5-9 OA SYSTEM CONTROLLER,Sensor,1
 Non-Parent Node Connection,CAFETERIA_ZN_1_FLR_1 ZN PSZ-AC_5-9 OUTDOOR AIR NODE,CONTROLLER:OUTDOORAIR,CAFETERIA_ZN_1_FLR_1 ZN PSZ-AC_5-9 OA SYSTEM CONTROLLER,Actuator,1
 Non-Parent Node Connection,CAFETERIA_ZN_1_FLR_1 ZN PSZ-AC_5-9 RELIEF AIR NODE,CONTROLLER:OUTDOORAIR,CAFETERIA_ZN_1_FLR_1 ZN PSZ-AC_5-9 OA SYSTEM CONTROLLER,Actuator,1
 Non-Parent Node Connection,CAFETERIA_ZN_1_FLR_1 ZN PSZ-AC_5-9 SUPPLY INLET NODE,CONTROLLER:OUTDOORAIR,CAFETERIA_ZN_1_FLR_1 ZN PSZ-AC_5-9 OA SYSTEM CONTROLLER,Sensor,1
 Non-Parent Node Connection,GYM_ZN_1_FLR_1 ZN PSZ-AC_1-5 MIXED AIR NODE,CONTROLLER:OUTDOORAIR,GYM_ZN_1_FLR_1 ZN PSZ-AC_1-5 OA SYSTEM CONTROLLER,Sensor,1
 Non-Parent Node Connection,GYM_ZN_1_FLR_1 ZN PSZ-AC_1-5 OUTDOOR AIR NODE,CONTROLLER:OUTDOORAIR,GYM_ZN_1_FLR_1 ZN PSZ-AC_1-5 OA SYSTEM CONTROLLER,Actuator,1
 Non-Parent Node Connection,GYM_ZN_1_FLR_1 ZN PSZ-AC_1-5 RELIEF AIR NODE,CONTROLLER:OUTDOORAIR,GYM_ZN_1_FLR_1 ZN PSZ-AC_1-5 OA SYSTEM CONTROLLER,Actuator,1
 Non-Parent Node Connection,GYM_ZN_1_FLR_1 ZN PSZ-AC_1-5 SUPPLY INLET NODE,CONTROLLER:OUTDOORAIR,GYM_ZN_1_FLR_1 ZN PSZ-AC_1-5 OA SYSTEM CONTROLLER,Sensor,1
 Non-Parent Node Connection,KITCHEN_ZN_1_FLR_1 ZN PSZ-AC_4-8 MIXED AIR NODE,CONTROLLER:OUTDOORAIR,KITCHEN_ZN_1_FLR_1 ZN PSZ-AC_4-8 OA SYSTEM CONTROLLER,Sensor,1
 Non-Parent Node Connection,KITCHEN_ZN_1_FLR_1 ZN PSZ-AC_4-8 OUTDOOR AIR NODE,CONTROLLER:OUTDOORAIR,KITCHEN_ZN_1_FLR_1 ZN PSZ-AC_4-8 OA SYSTEM CONTROLLER,Actuator,1
 Non-Parent Node Connection,KITCHEN_ZN_1_FLR_1 ZN PSZ-AC_4-8 RELIEF AIR NODE,CONTROLLER:OUTDOORAIR,KITCHEN_ZN_1_FLR_1 ZN PSZ-AC_4-8 OA SYSTEM CONTROLLER,Actuator,1
 Non-Parent Node Connection,KITCHEN_ZN_1_FLR_1 ZN PSZ-AC_4-8 SUPPLY INLET NODE,CONTROLLER:OUTDOORAIR,KITCHEN_ZN_1_FLR_1 ZN PSZ-AC_4-8 OA SYSTEM CONTROLLER,Sensor,1
 Non-Parent Node Connection,VAV_OTHER MIXED AIR NODE,CONTROLLER:OUTDOORAIR,VAV_OTHER OA CONTROLLER,Sensor,1
 Non-Parent Node Connection,VAV_OTHER OUTDOOR AIR NODE,CONTROLLER:OUTDOORAIR,VAV_OTHER OA CONTROLLER,Actuator,1
 Non-Parent Node Connection,VAV_OTHER RELIEF AIR NODE,CONTROLLER:OUTDOORAIR,VAV_OTHER OA CONTROLLER,Actuator,1
 Non-Parent Node Connection,VAV_OTHER SUPPLY INLET NODE,CONTROLLER:OUTDOORAIR,VAV_OTHER OA CONTROLLER,Sensor,1
 Non-Parent Node Connection,VAV_POD_1 MIXED AIR NODE,CONTROLLER:OUTDOORAIR,VAV_POD_1 OA CONTROLLER,Sensor,1
 Non-Parent Node Connection,VAV_POD_1 OUTDOOR AIR NODE,CONTROLLER:OUTDOORAIR,VAV_POD_1 OA CONTROLLER,Actuator,1
 Non-Parent Node Connection,VAV_POD_1 RELIEF AIR NODE,CONTROLLER:OUTDOORAIR,VAV_POD_1 OA CONTROLLER,Actuator,1
 Non-Parent Node Connection,VAV_POD_1 SUPPLY INLET NODE,CONTROLLER:OUTDOORAIR,VAV_POD_1 OA CONTROLLER,Sensor,1
 Non-Parent Node Connection,VAV_POD_2 MIXED AIR NODE,CONTROLLER:OUTDOORAIR,VAV_POD_2 OA CONTROLLER,Sensor,1
 Non-Parent Node Connection,VAV_POD_2 OUTDOOR AIR NODE,CONTROLLER:OUTDOORAIR,VAV_POD_2 OA CONTROLLER,Actuator,1
 Non-Parent Node Connection,VAV_POD_2 RELIEF AIR NODE,CONTROLLER:OUTDOORAIR,VAV_POD_2 OA CONTROLLER,Actuator,1
 Non-Parent Node Connection,VAV_POD_2 SUPPLY INLET NODE,CONTROLLER:OUTDOORAIR,VAV_POD_2 OA CONTROLLER,Sensor,1
 Non-Parent Node Connection,VAV_POD_3 MIXED AIR NODE,CONTROLLER:OUTDOORAIR,VAV_POD_3 OA CONTROLLER,Sensor,1
 Non-Parent Node Connection,VAV_POD_3 OUTDOOR AIR NODE,CONTROLLER:OUTDOORAIR,VAV_POD_3 OA CONTROLLER,Actuator,1
 Non-Parent Node Connection,VAV_POD_3 RELIEF AIR NODE,CONTROLLER:OUTDOORAIR,VAV_POD_3 OA CONTROLLER,Actuator,1
 Non-Parent Node Connection,VAV_POD_3 SUPPLY INLET NODE,CONTROLLER:OUTDOORAIR,VAV_POD_3 OA CONTROLLER,Sensor,1
 Non-Parent Node Connection,AUDITORIUM_ZN_1_FLR_1 ZN PSZ-AC_3-7 MIXED AIR NODE,COIL:COOLING:DX:TWOSPEED,AUDITORIUM_ZN_1_FLR_1 ZN PSZ-AC_3-7 2SPD DX AC CLG COIL 704KBTU/HR 9.8EER,Inlet,1
 Non-Parent Node Connection,AUDITORIUM_ZN_1_FLR_1 ZN PSZ-AC_3-7 2SPD DX AC CLG COIL 704KBTU/HR 9.8EER OUTLET AIR NODE,COIL:COOLING:DX:TWOSPEED,AUDITORIUM_ZN_1_FLR_1 ZN PSZ-AC_3-7 2SPD DX AC CLG COIL 704KBTU/HR 9.8EER,Outlet,1
 Non-Parent Node Connection,AUX_GYM_ZN_1_FLR_1 ZN PSZ-AC_2-6 MIXED AIR NODE,COIL:COOLING:DX:TWOSPEED,AUX_GYM_ZN_1_FLR_1 ZN PSZ-AC_2-6 2SPD DX AC CLG COIL 303KBTU/HR 9.8EER,Inlet,1
 Non-Parent Node Connection,AUX_GYM_ZN_1_FLR_1 ZN PSZ-AC_2-6 2SPD DX AC CLG COIL 303KBTU/HR 9.8EER OUTLET AIR NODE,COIL:COOLING:DX:TWOSPEED,AUX_GYM_ZN_1_FLR_1 ZN PSZ-AC_2-6 2SPD DX AC CLG COIL 303KBTU/HR 9.8EER,Outlet,1
 Non-Parent Node Connection,CAFETERIA_ZN_1_FLR_1 ZN PSZ-AC_5-9 MIXED AIR NODE,COIL:COOLING:DX:TWOSPEED,CAFETERIA_ZN_1_FLR_1 ZN PSZ-AC_5-9 2SPD DX AC CLG COIL 366KBTU/HR 9.8EER,Inlet,1
 Non-Parent Node Connection,CAFETERIA_ZN_1_FLR_1 ZN PSZ-AC_5-9 2SPD DX AC CLG COIL 366KBTU/HR 9.8EER OUTLET AIR NODE,COIL:COOLING:DX:TWOSPEED,CAFETERIA_ZN_1_FLR_1 ZN PSZ-AC_5-9 2SPD DX AC CLG COIL 366KBTU/HR 9.8EER,Outlet,1
 Non-Parent Node Connection,GYM_ZN_1_FLR_1 ZN PSZ-AC_1-5 MIXED AIR NODE,COIL:COOLING:DX:TWOSPEED,GYM_ZN_1_FLR_1 ZN PSZ-AC_1-5 2SPD DX AC CLG COIL 421KBTU/HR 9.8EER,Inlet,1
 Non-Parent Node Connection,GYM_ZN_1_FLR_1 ZN PSZ-AC_1-5 2SPD DX AC CLG COIL 421KBTU/HR 9.8EER OUTLET AIR NODE,COIL:COOLING:DX:TWOSPEED,GYM_ZN_1_FLR_1 ZN PSZ-AC_1-5 2SPD DX AC CLG COIL 421KBTU/HR 9.8EER,Outlet,1
 Non-Parent Node Connection,KITCHEN_ZN_1_FLR_1 ZN PSZ-AC_4-8 MIXED AIR NODE,COIL:COOLING:DX:TWOSPEED,KITCHEN_ZN_1_FLR_1 ZN PSZ-AC_4-8 2SPD DX AC CLG COIL 103KBTU/HR 11.0EER,Inlet,1
 Non-Parent Node Connection,KITCHEN_ZN_1_FLR_1 ZN PSZ-AC_4-8 2SPD DX AC CLG COIL 103KBTU/HR 11.0EER OUTLET AIR NODE,COIL:COOLING:DX:TWOSPEED,KITCHEN_ZN_1_FLR_1 ZN PSZ-AC_4-8 2SPD DX AC CLG COIL 103KBTU/HR 11.0EER,Outlet,1
 Non-Parent Node Connection,AUDITORIUM_ZN_1_FLR_1 ZN PSZ-AC_3-7 GAS HTG COIL OUTLET AIR NODE,COIL:HEATING:ELECTRIC,AUDITORIUM_ZN_1_FLR_1 ZN PSZ-AC_3-7 NO HEAT,Inlet,1
 Non-Parent Node Connection,AUDITORIUM_ZN_1_FLR_1 ZN PSZ-AC_3-7 NO HEAT OUTLET AIR NODE,COIL:HEATING:ELECTRIC,AUDITORIUM_ZN_1_FLR_1 ZN PSZ-AC_3-7 NO HEAT,Outlet,1
 Non-Parent Node Connection,AUDITORIUM_ZN_1_FLR_1 ZN PSZ-AC_3-7 NO HEAT OUTLET AIR NODE,COIL:HEATING:ELECTRIC,AUDITORIUM_ZN_1_FLR_1 ZN PSZ-AC_3-7 NO HEAT,Sensor,1
 Non-Parent Node Connection,AUX_GYM_ZN_1_FLR_1 ZN PSZ-AC_2-6 GAS HTG COIL OUTLET AIR NODE,COIL:HEATING:ELECTRIC,AUX_GYM_ZN_1_FLR_1 ZN PSZ-AC_2-6 NO HEAT,Inlet,1
 Non-Parent Node Connection,AUX_GYM_ZN_1_FLR_1 ZN PSZ-AC_2-6 NO HEAT OUTLET AIR NODE,COIL:HEATING:ELECTRIC,AUX_GYM_ZN_1_FLR_1 ZN PSZ-AC_2-6 NO HEAT,Outlet,1
 Non-Parent Node Connection,AUX_GYM_ZN_1_FLR_1 ZN PSZ-AC_2-6 NO HEAT OUTLET AIR NODE,COIL:HEATING:ELECTRIC,AUX_GYM_ZN_1_FLR_1 ZN PSZ-AC_2-6 NO HEAT,Sensor,1
 Non-Parent Node Connection,CAFETERIA_ZN_1_FLR_1 ZN PSZ-AC_5-9 GAS HTG COIL OUTLET AIR NODE,COIL:HEATING:ELECTRIC,CAFETERIA_ZN_1_FLR_1 ZN PSZ-AC_5-9 NO HEAT,Inlet,1
 Non-Parent Node Connection,CAFETERIA_ZN_1_FLR_1 ZN PSZ-AC_5-9 NO HEAT OUTLET AIR NODE,COIL:HEATING:ELECTRIC,CAFETERIA_ZN_1_FLR_1 ZN PSZ-AC_5-9 NO HEAT,Outlet,1
 Non-Parent Node Connection,CAFETERIA_ZN_1_FLR_1 ZN PSZ-AC_5-9 NO HEAT OUTLET AIR NODE,COIL:HEATING:ELECTRIC,CAFETERIA_ZN_1_FLR_1 ZN PSZ-AC_5-9 NO HEAT,Sensor,1
 Non-Parent Node Connection,GYM_ZN_1_FLR_1 ZN PSZ-AC_1-5 GAS HTG COIL OUTLET AIR NODE,COIL:HEATING:ELECTRIC,GYM_ZN_1_FLR_1 ZN PSZ-AC_1-5 NO HEAT,Inlet,1
 Non-Parent Node Connection,GYM_ZN_1_FLR_1 ZN PSZ-AC_1-5 NO HEAT OUTLET AIR NODE,COIL:HEATING:ELECTRIC,GYM_ZN_1_FLR_1 ZN PSZ-AC_1-5 NO HEAT,Outlet,1
 Non-Parent Node Connection,GYM_ZN_1_FLR_1 ZN PSZ-AC_1-5 NO HEAT OUTLET AIR NODE,COIL:HEATING:ELECTRIC,GYM_ZN_1_FLR_1 ZN PSZ-AC_1-5 NO HEAT,Sensor,1
 Non-Parent Node Connection,KITCHEN_ZN_1_FLR_1 ZN PSZ-AC_4-8 GAS HTG COIL OUTLET AIR NODE,COIL:HEATING:ELECTRIC,KITCHEN_ZN_1_FLR_1 ZN PSZ-AC_4-8 NO HEAT,Inlet,1
 Non-Parent Node Connection,KITCHEN_ZN_1_FLR_1 ZN PSZ-AC_4-8 NO HEAT OUTLET AIR NODE,COIL:HEATING:ELECTRIC,KITCHEN_ZN_1_FLR_1 ZN PSZ-AC_4-8 NO HEAT,Outlet,1
 Non-Parent Node Connection,KITCHEN_ZN_1_FLR_1 ZN PSZ-AC_4-8 NO HEAT OUTLET AIR NODE,COIL:HEATING:ELECTRIC,KITCHEN_ZN_1_FLR_1 ZN PSZ-AC_4-8 NO HEAT,Sensor,1
 Non-Parent Node Connection,AUDITORIUM_ZN_1_FLR_1 ZN PSZ-AC_3-7 2SPD DX AC CLG COIL 704KBTU/HR 9.8EER OUTLET AIR NODE,COIL:HEATING:FUEL,AUDITORIUM_ZN_1_FLR_1 ZN PSZ-AC_3-7 GAS HTG COIL,Inlet,1
 Non-Parent Node Connection,AUDITORIUM_ZN_1_FLR_1 ZN PSZ-AC_3-7 GAS HTG COIL OUTLET AIR NODE,COIL:HEATING:FUEL,AUDITORIUM_ZN_1_FLR_1 ZN PSZ-AC_3-7 GAS HTG COIL,Outlet,1
 Non-Parent Node Connection,AUDITORIUM_ZN_1_FLR_1 ZN PSZ-AC_3-7 GAS HTG COIL OUTLET AIR NODE,COIL:HEATING:FUEL,AUDITORIUM_ZN_1_FLR_1 ZN PSZ-AC_3-7 GAS HTG COIL,Sensor,1
 Non-Parent Node Connection,AUX_GYM_ZN_1_FLR_1 ZN PSZ-AC_2-6 2SPD DX AC CLG COIL 303KBTU/HR 9.8EER OUTLET AIR NODE,COIL:HEATING:FUEL,AUX_GYM_ZN_1_FLR_1 ZN PSZ-AC_2-6 GAS HTG COIL,Inlet,1
 Non-Parent Node Connection,AUX_GYM_ZN_1_FLR_1 ZN PSZ-AC_2-6 GAS HTG COIL OUTLET AIR NODE,COIL:HEATING:FUEL,AUX_GYM_ZN_1_FLR_1 ZN PSZ-AC_2-6 GAS HTG COIL,Outlet,1
 Non-Parent Node Connection,AUX_GYM_ZN_1_FLR_1 ZN PSZ-AC_2-6 GAS HTG COIL OUTLET AIR NODE,COIL:HEATING:FUEL,AUX_GYM_ZN_1_FLR_1 ZN PSZ-AC_2-6 GAS HTG COIL,Sensor,1
 Non-Parent Node Connection,CAFETERIA_ZN_1_FLR_1 ZN PSZ-AC_5-9 2SPD DX AC CLG COIL 366KBTU/HR 9.8EER OUTLET AIR NODE,COIL:HEATING:FUEL,CAFETERIA_ZN_1_FLR_1 ZN PSZ-AC_5-9 GAS HTG COIL,Inlet,1
 Non-Parent Node Connection,CAFETERIA_ZN_1_FLR_1 ZN PSZ-AC_5-9 GAS HTG COIL OUTLET AIR NODE,COIL:HEATING:FUEL,CAFETERIA_ZN_1_FLR_1 ZN PSZ-AC_5-9 GAS HTG COIL,Outlet,1
 Non-Parent Node Connection,CAFETERIA_ZN_1_FLR_1 ZN PSZ-AC_5-9 GAS HTG COIL OUTLET AIR NODE,COIL:HEATING:FUEL,CAFETERIA_ZN_1_FLR_1 ZN PSZ-AC_5-9 GAS HTG COIL,Sensor,1
 Non-Parent Node Connection,GYM_ZN_1_FLR_1 ZN PSZ-AC_1-5 2SPD DX AC CLG COIL 421KBTU/HR 9.8EER OUTLET AIR NODE,COIL:HEATING:FUEL,GYM_ZN_1_FLR_1 ZN PSZ-AC_1-5 GAS HTG COIL,Inlet,1
 Non-Parent Node Connection,GYM_ZN_1_FLR_1 ZN PSZ-AC_1-5 GAS HTG COIL OUTLET AIR NODE,COIL:HEATING:FUEL,GYM_ZN_1_FLR_1 ZN PSZ-AC_1-5 GAS HTG COIL,Outlet,1
 Non-Parent Node Connection,GYM_ZN_1_FLR_1 ZN PSZ-AC_1-5 GAS HTG COIL OUTLET AIR NODE,COIL:HEATING:FUEL,GYM_ZN_1_FLR_1 ZN PSZ-AC_1-5 GAS HTG COIL,Sensor,1
 Non-Parent Node Connection,KITCHEN_ZN_1_FLR_1 ZN PSZ-AC_4-8 2SPD DX AC CLG COIL 103KBTU/HR 11.0EER OUTLET AIR NODE,COIL:HEATING:FUEL,KITCHEN_ZN_1_FLR_1 ZN PSZ-AC_4-8 GAS HTG COIL,Inlet,1
 Non-Parent Node Connection,KITCHEN_ZN_1_FLR_1 ZN PSZ-AC_4-8 GAS HTG COIL OUTLET AIR NODE,COIL:HEATING:FUEL,KITCHEN_ZN_1_FLR_1 ZN PSZ-AC_4-8 GAS HTG COIL,Outlet,1
 Non-Parent Node Connection,KITCHEN_ZN_1_FLR_1 ZN PSZ-AC_4-8 GAS HTG COIL OUTLET AIR NODE,COIL:HEATING:FUEL,KITCHEN_ZN_1_FLR_1 ZN PSZ-AC_4-8 GAS HTG COIL,Sensor,1
 Non-Parent Node Connection,CHILLED WATER LOOP SECONDARY PUMP INLET WATER NODE,PUMP:VARIABLESPEED,CHILLED WATER LOOP SECONDARY PUMP,Inlet,1
 Non-Parent Node Connection,CHILLED WATER LOOP SECONDARY PUMP OUTLET WATER NODE,PUMP:VARIABLESPEED,CHILLED WATER LOOP SECONDARY PUMP,Outlet,1
 Non-Parent Node Connection,HOT WATER LOOP SUPPLY INLET NODE,PUMP:VARIABLESPEED,HOT WATER LOOP PUMP,Inlet,1
 Non-Parent Node Connection,HOT WATER LOOP PUMP OUTLET WATER NODE,PUMP:VARIABLESPEED,HOT WATER LOOP PUMP,Outlet,1
 Non-Parent Node Connection,BOOSTER WATER LOOP PUMP INLET WATER NODE,PUMP:VARIABLESPEED,BOOSTER WATER LOOP PUMP,Inlet,1
 Non-Parent Node Connection,BOOSTER WATER LOOP PUMP OUTLET WATER NODE,PUMP:VARIABLESPEED,BOOSTER WATER LOOP PUMP,Outlet,1
 Non-Parent Node Connection,CHILLED WATER LOOP SUPPLY INLET NODE,PUMP:CONSTANTSPEED,CHILLED WATER LOOP PRIMARY PUMP,Inlet,1
 Non-Parent Node Connection,CHILLED WATER LOOP PRIMARY PUMP OUTLET WATER NODE,PUMP:CONSTANTSPEED,CHILLED WATER LOOP PRIMARY PUMP,Outlet,1
 Non-Parent Node Connection,MAIN SERVICE WATER LOOP SUPPLY INLET NODE,PUMP:CONSTANTSPEED,MAIN SERVICE WATER LOOP CIRCULATOR PUMP,Inlet,1
 Non-Parent Node Connection,MAIN SERVICE WATER LOOP CIRCULATOR PUMP OUTLET WATER NODE,PUMP:CONSTANTSPEED,MAIN SERVICE WATER LOOP CIRCULATOR PUMP,Outlet,1
