Program Version,EnergyPlus, Version 9.4.0-998c4b761e, YMD=2021.02.22 16:14
! <Version>, Version ID
 Version, 9.4
! <Timesteps per Hour>, #TimeSteps, Minutes per TimeStep {minutes}
 Timesteps per Hour,  1, 60
! <System Convergence Limits>, Minimum System TimeStep {minutes}, Max HVAC Iterations, Minimum Plant Iterations, Maximum Plant Iterations
 System Convergence Limits, 1, 20, 2, 8
! <Simulation Control>, Do Zone Sizing, Do System Sizing, Do Plant Sizing, Do Design Days, Do Weather Simulation, Do HVAC Sizing Simulation
 Simulation Control, Yes, Yes, Yes, Yes, No, No
! <Performance Precision Tradeoffs>, Use Coil Direct Simulation, Zone Radiant Exchange Algorithm, Override Mode, Number of Timestep In Hour, Force Euler Method, Minimum Number of Warmup Days, Force Suppress All Begin Environment Resets, Minimum System Timestep, MaxZoneTempDiff, MaxAllowedDelTemp
 Performance Precision Tradeoffs, No, ScriptF, Normal, 1, No, 1, No, 1.0, 0.300, 2.0000E-003
! <Output Reporting Tolerances>, Tolerance for Time Heating Setpoint Not Met, Tolerance for Zone Cooling Setpoint Not Met Time
 Output Reporting Tolerances, 0.200, 0.200, 
! <Site:GroundTemperature:BuildingSurface>,Jan{C},Feb{C},Mar{C},Apr{C},May{C},Jun{C},Jul{C},Aug{C},Sep{C},Oct{C},Nov{C},Dec{C}
 Site:GroundTemperature:BuildingSurface,  20.78,  20.77,  20.81,  20.84,  20.91,  23.19,  23.53,  23.58,  23.59,  21.30,  20.97,  20.85
! <Site:GroundTemperature:FCfactorMethod>,Jan{C},Feb{C},Mar{C},Apr{C},May{C},Jun{C},Jul{C},Aug{C},Sep{C},Oct{C},Nov{C},Dec{C}
 Site:GroundTemperature:FCfactorMethod,  10.83,   7.34,   6.39,   7.21,  11.92,  17.20,  22.17,  25.77,  26.82,  25.13,  21.06,  15.93
! <Site:GroundTemperature:Shallow>,Jan{C},Feb{C},Mar{C},Apr{C},May{C},Jun{C},Jul{C},Aug{C},Sep{C},Oct{C},Nov{C},Dec{C}
 Site:GroundTemperature:Shallow,  13.00,  13.00,  13.00,  13.00,  13.00,  13.00,  13.00,  13.00,  13.00,  13.00,  13.00,  13.00
! <Site:GroundTemperature:Deep>,Jan{C},Feb{C},Mar{C},Apr{C},May{C},Jun{C},Jul{C},Aug{C},Sep{C},Oct{C},Nov{C},Dec{C}
 Site:GroundTemperature:Deep,  16.00,  16.00,  16.00,  16.00,  16.00,  16.00,  16.00,  16.00,  16.00,  16.00,  16.00,  16.00
! <Site:GroundReflectance>,Jan{dimensionless},Feb{dimensionless},Mar{dimensionless},Apr{dimensionless},May{dimensionless},Jun{dimensionless},Jul{dimensionless},Aug{dimensionless},Sep{dimensionless},Oct{dimensionless},Nov{dimensionless},Dec{dimensionless}
 Site:GroundReflectance,  0.20,  0.20,  0.20,  0.20,  0.20,  0.20,  0.20,  0.20,  0.20,  0.20,  0.20,  0.20
! <Site:GroundReflectance:SnowModifier>, Normal, Daylighting {dimensionless}
 Site:GroundReflectance:SnowModifier,   1.000,   1.000
! <Site:GroundReflectance:Snow>,Jan{dimensionless},Feb{dimensionless},Mar{dimensionless},Apr{dimensionless},May{dimensionless},Jun{dimensionless},Jul{dimensionless},Aug{dimensionless},Sep{dimensionless},Oct{dimensionless},Nov{dimensionless},Dec{dimensionless}
 Site:GroundReflectance:Snow,  0.20,  0.20,  0.20,  0.20,  0.20,  0.20,  0.20,  0.20,  0.20,  0.20,  0.20,  0.20
! <Site:GroundReflectance:Snow:Daylighting>,Jan{dimensionless},Feb{dimensionless},Mar{dimensionless},Apr{dimensionless},May{dimensionless},Jun{dimensionless},Jul{dimensionless},Aug{dimensionless},Sep{dimensionless},Oct{dimensionless},Nov{dimensionless},Dec{dimensionless}
 Site:GroundReflectance:Snow:Daylighting,  0.20,  0.20,  0.20,  0.20,  0.20,  0.20,  0.20,  0.20,  0.20,  0.20,  0.20,  0.20
! <Environment:Weather Station>,Wind Sensor Height Above Ground {m},Wind Speed Profile Exponent {},Wind Speed Profile Boundary Layer Thickness {m},Air Temperature Sensor Height Above Ground {m},Wind Speed Modifier Coefficient-Internal,Temperature Modifier Coefficient-Internal
Environment:Weather Station,10.000,0.140,270.000,1.500,1.586,9.750E-003
! <Site:Location>, Location Name, Latitude {N+/S- Deg}, Longitude {E+/W- Deg},  Time Zone Number {GMT+/-}, Elevation {m},  Standard Pressure at Elevation {Pa}, Standard RhoAir at Elevation
Site:Location,Atlanta Hartsfield Intl Ap GA USA TMY3 WMO#=722190,33.63,-84.43,-5.00,308.00,97679,1.1610
! <Site Water Mains Temperature Information>,Calculation Method{},Water Mains Temperature Schedule Name{},Annual Average Outdoor Air Temperature{C},Maximum Difference In Monthly Average Outdoor Air Temperatures{deltaC},Fixed Default Water Mains Temperature{C}
Site Water Mains Temperature Information,Correlation,NA,17.94,21.10,NA
! <Building Information>, Building Name,North Axis {deg},Terrain,  Loads Convergence Tolerance Value,Temperature Convergence Tolerance Value,  Solar Distribution,Maximum Number of Warmup Days,Minimum Number of Warmup Days
 Building Information,-SecondarySchool-ASHRAE 169-2006-3B created: 2020-11-10 15:39:57 -0700,0.000,City,4.00000E-002,0.20000,FullInteriorAndExterior,25,6
! <Inside Convection Algorithm>, Algorithm {Simple | TARP | CeilingDiffuser | AdaptiveConvectionAlgorithm}
Inside Convection Algorithm,TARP
! <Outside Convection Algorithm>, Algorithm {SimpleCombined | TARP | MoWitt | DOE-2 | AdaptiveConvectionAlgorithm}
Outside Convection Algorithm,TARP
! <Sky Radiance Distribution>, Value {Anisotropic}
Sky Radiance Distribution,Anisotropic
! <Zone Air Solution Algorithm>, Value {ThirdOrderBackwardDifference | AnalyticalSolution | EulerMethod}
 Zone Air Solution Algorithm, AnalyticalSolution
! <Zone Air Carbon Dioxide Balance Simulation>, Simulation {Yes/No}, Carbon Dioxide Concentration
 Zone Air Carbon Dioxide Balance Simulation, No,N/A
! <Zone Air Generic Contaminant Balance Simulation>, Simulation {Yes/No}, Generic Contaminant Concentration
 Zone Air Generic Contaminant Balance Simulation, No,N/A
! <Zone Air Mass Flow Balance Simulation>, Enforce Mass Balance, Adjust Zone Mixing, Adjust Zone Infiltration {AddInfiltration | AdjustInfiltration | None}, Infiltration Zones {MixingSourceZonesOnly | AllZones}
 Zone Air Mass Flow Balance Simulation, No,N/A,N/A,N/A
! <HVACSystemRootFindingAlgorithm>, Value {RegulaFalsi | Bisection | BisectionThenRegulaFalsi | RegulaFalsiThenBisection}
 HVACSystemRootFindingAlgorithm, RegulaFalsi
! <Environment:Site Atmospheric Variation>,Wind Speed Profile Exponent {},Wind Speed Profile Boundary Layer Thickness {m},Air Temperature Gradient Coefficient {K/m}
Environment:Site Atmospheric Variation,0.330,460.000,6.500000E-003
! <Surface Geometry>,Starting Corner,Vertex Input Direction,Coordinate System,Daylight Reference Point Coordinate System,Rectangular (Simple) Surface Coordinate System
 Surface Geometry,UpperLeftCorner,Counterclockwise,RelativeCoordinateSystem,RelativeCoordinateSystem,RelativeToZoneOrigin
! <Surface Heat Transfer Algorithm>, Value {CTF - ConductionTransferFunction | EMPD - MoisturePenetrationDepthConductionTransferFunction | CondFD - ConductionFiniteDifference | HAMT - CombinedHeatAndMoistureFiniteElement} - Description,Inside Surface Max Temperature Limit{C}, Surface Convection Coefficient Lower Limit {W/m2-K}, Surface Convection Coefficient Upper Limit {W/m2-K}
Surface Heat Transfer Algorithm, CTF - ConductionTransferFunction,200,0.10,1000.0
! <Shading Summary>, Number of Fixed Detached Shades, Number of Building Detached Shades, Number of Attached Shades
 Shading Summary,0,0,0
! <Zone Summary>, Number of Zones, Number of Zone Surfaces, Number of SubSurfaces
 Zone Summary,46,578,209
! <Zone Information>,Zone Name,North Axis {deg},Origin X-Coordinate {m},Origin Y-Coordinate {m},Origin Z-Coordinate {m},Centroid X-Coordinate {m},Centroid Y-Coordinate {m},Centroid Z-Coordinate {m},Type,Zone Multiplier,Zone List Multiplier,Minimum X {m},Maximum X {m},Minimum Y {m},Maximum Y {m},Minimum Z {m},Maximum Z {m},Ceiling Height {m},Volume {m3},Zone Inside Convection Algorithm {Simple-Detailed-CeilingDiffuser-TrombeWall},Zone Outside Convection Algorithm {Simple-Detailed-Tarp-MoWitt-DOE-2-BLAST}, Floor Area {m2},Exterior Gross Wall Area {m2},Exterior Net Wall Area {m2},Exterior Window Area {m2}, Number of Surfaces, Number of SubSurfaces, Number of Shading SubSurfaces,  Part of Total Building Area
 Zone Information, AUDITORIUM_ZN_1_FLR_1 ZN,0.0,79.00,75.00,0.00,98.00,88.00,4.00,1,1,1,79.00,117.00,75.00,101.00,0.00,8.00,8.00,7904.00,TARP,TARP,988.00,304.00,191.75,106.40,11,4,0,Yes
 Zone Information, AUX_GYM_ZN_1_FLR_1 ZN,0.0,117.00,14.00,0.00,129.00,40.00,4.00,1,1,1,117.00,141.00,14.00,66.00,0.00,8.00,8.00,9984.00,TARP,TARP,1248.00,608.00,564.65,87.15,8,42,0,Yes
 Zone Information, BATHROOMS_ZN_1_FLR_1 ZN,0.0,64.00,90.00,0.00,71.50,97.00,2.00,1,1,1,64.00,79.00,90.00,104.00,0.00,4.00,4.00,840.00,TARP,TARP,210.00,72.00,46.80,25.20,8,2,0,Yes
 Zone Information, BATHROOMS_ZN_1_FLR_2 ZN,0.0,64.00,90.00,4.00,71.50,97.00,6.00,1,1,1,64.00,79.00,90.00,104.00,4.00,8.00,4.00,840.00,TARP,TARP,210.00,72.00,46.80,25.20,8,2,0,Yes
 Zone Information, CAFETERIA_ZN_1_FLR_1 ZN,0.0,117.00,75.00,0.00,129.00,88.00,2.00,1,1,1,117.00,141.00,75.00,101.00,0.00,4.00,4.00,2496.00,TARP,TARP,624.00,200.00,91.65,106.40,6,4,0,Yes
 Zone Information, CORNER_CLASS_1_POD_1_ZN_1_FLR_1 ZN,0.0,0.00,0.00,0.00,5.50,4.50,2.00,1,1,1,0.00,11.00,0.00,9.00,0.00,4.00,4.00,396.00,TARP,TARP,99.00,80.00,50.05,28.00,6,4,0,Yes
 Zone Information, CORNER_CLASS_1_POD_1_ZN_1_FLR_2 ZN,0.0,0.00,0.00,4.00,5.50,4.50,6.00,1,1,1,0.00,11.00,0.00,9.00,4.00,8.00,4.00,396.00,TARP,TARP,99.00,80.00,52.00,28.00,6,2,0,Yes
 Zone Information, CORNER_CLASS_1_POD_2_ZN_1_FLR_1 ZN,0.0,0.00,40.00,0.00,5.50,44.50,2.00,1,1,1,0.00,11.00,40.00,49.00,0.00,4.00,4.00,396.00,TARP,TARP,99.00,80.00,50.05,28.00,6,4,0,Yes
 Zone Information, CORNER_CLASS_1_POD_2_ZN_1_FLR_2 ZN,0.0,0.00,40.00,4.00,5.50,44.50,6.00,1,1,1,0.00,11.00,40.00,49.00,4.00,8.00,4.00,396.00,TARP,TARP,99.00,80.00,52.00,28.00,6,2,0,Yes
 Zone Information, CORNER_CLASS_1_POD_3_ZN_1_FLR_1 ZN,0.0,0.00,81.00,0.00,5.50,85.50,2.00,1,1,1,0.00,11.00,81.00,90.00,0.00,4.00,4.00,396.00,TARP,TARP,99.00,80.00,50.05,28.00,6,4,0,Yes
 Zone Information, CORNER_CLASS_1_POD_3_ZN_1_FLR_2 ZN,0.0,0.00,81.00,4.00,5.50,85.50,6.00,1,1,1,0.00,11.00,81.00,90.00,4.00,8.00,4.00,396.00,TARP,TARP,99.00,80.00,52.00,28.00,6,2,0,Yes
 Zone Information, CORNER_CLASS_2_POD_1_ZN_1_FLR_1 ZN,0.0,0.00,14.00,0.00,5.50,18.50,2.00,1,1,1,0.00,11.00,14.00,23.00,0.00,4.00,4.00,396.00,TARP,TARP,99.00,80.00,50.05,28.00,6,4,0,Yes
 Zone Information, CORNER_CLASS_2_POD_1_ZN_1_FLR_2 ZN,0.0,0.00,14.00,4.00,5.50,18.50,6.00,1,1,1,0.00,11.00,14.00,23.00,4.00,8.00,4.00,396.00,TARP,TARP,99.00,80.00,52.00,28.00,6,2,0,Yes
 Zone Information, CORNER_CLASS_2_POD_2_ZN_1_FLR_1 ZN,0.0,0.00,54.00,0.00,5.50,58.50,2.00,1,1,1,0.00,11.00,54.00,63.00,0.00,4.00,4.00,396.00,TARP,TARP,99.00,80.00,50.05,28.00,6,4,0,Yes
 Zone Information, CORNER_CLASS_2_POD_2_ZN_1_FLR_2 ZN,0.0,0.00,54.00,4.00,5.50,58.50,6.00,1,1,1,0.00,11.00,54.00,63.00,4.00,8.00,4.00,396.00,TARP,TARP,99.00,80.00,52.00,28.00,6,2,0,Yes
 Zone Information, CORNER_CLASS_2_POD_3_ZN_1_FLR_1 ZN,0.0,0.00,95.00,0.00,5.50,99.50,2.00,1,1,1,0.00,11.00,95.00,104.00,0.00,4.00,4.00,396.00,TARP,TARP,99.00,80.00,50.05,28.00,6,4,0,Yes
 Zone Information, CORNER_CLASS_2_POD_3_ZN_1_FLR_2 ZN,0.0,0.00,95.00,4.00,5.50,99.50,6.00,1,1,1,0.00,11.00,95.00,104.00,4.00,8.00,4.00,396.00,TARP,TARP,99.00,80.00,52.00,28.00,6,2,0,Yes
 Zone Information, CORRIDOR_POD_1_ZN_1_FLR_1 ZN,0.0,0.00,9.00,0.00,32.00,11.50,2.00,1,1,1,0.00,64.00,9.00,14.00,0.00,4.00,4.00,1280.00,TARP,TARP,320.00,20.00,13.00,7.00,8,1,0,Yes
 Zone Information, CORRIDOR_POD_1_ZN_1_FLR_2 ZN,0.0,0.00,9.00,4.00,32.00,11.50,6.00,1,1,1,0.00,64.00,9.00,14.00,4.00,8.00,4.00,1280.00,TARP,TARP,320.00,20.00,13.00,7.00,8,1,0,Yes
 Zone Information, CORRIDOR_POD_2_ZN_1_FLR_1 ZN,0.0,0.00,49.00,0.00,32.00,51.50,2.00,1,1,1,0.00,64.00,49.00,54.00,0.00,4.00,4.00,1280.00,TARP,TARP,320.00,20.00,13.00,7.00,8,1,0,Yes
 Zone Information, CORRIDOR_POD_2_ZN_1_FLR_2 ZN,0.0,0.00,49.00,4.00,32.00,51.50,6.00,1,1,1,0.00,64.00,49.00,54.00,4.00,8.00,4.00,1280.00,TARP,TARP,320.00,20.00,13.00,7.00,8,1,0,Yes
 Zone Information, CORRIDOR_POD_3_ZN_1_FLR_1 ZN,0.0,0.00,90.00,0.00,32.00,92.50,2.00,1,1,1,0.00,64.00,90.00,95.00,0.00,4.00,4.00,1280.00,TARP,TARP,320.00,20.00,13.00,7.00,8,1,0,Yes
 Zone Information, CORRIDOR_POD_3_ZN_1_FLR_2 ZN,0.0,0.00,90.00,4.00,32.00,92.50,6.00,1,1,1,0.00,64.00,90.00,95.00,4.00,8.00,4.00,1280.00,TARP,TARP,320.00,20.00,13.00,7.00,8,1,0,Yes
 Zone Information, GYM_ZN_1_FLR_1 ZN,0.0,79.00,14.00,0.00,98.00,40.00,4.00,1,1,1,79.00,117.00,14.00,66.00,0.00,8.00,8.00,15808.00,TARP,TARP,1976.00,0.00,0.00,80.28,10,54,0,Yes
 Zone Information, KITCHEN_ZN_1_FLR_1 ZN,0.0,117.00,66.00,0.00,129.00,70.50,2.00,1,1,1,117.00,141.00,66.00,75.00,0.00,4.00,4.00,864.00,TARP,TARP,216.00,36.00,23.40,12.60,6,1,0,Yes
 Zone Information, LIBRARY_MEDIA_CENTER_ZN_1_FLR_2 ZN,0.0,117.00,66.00,4.00,129.00,83.50,6.00,1,1,1,117.00,141.00,66.00,101.00,4.00,8.00,4.00,3360.00,TARP,TARP,840.00,236.00,153.40,82.60,8,2,0,Yes
 Zone Information, LOBBY_ZN_1_FLR_1 ZN,0.0,64.00,0.00,0.00,71.50,7.00,2.00,1,1,1,64.00,79.00,0.00,14.00,0.00,4.00,4.00,840.00,TARP,TARP,210.00,60.00,37.05,21.00,7,3,0,Yes
 Zone Information, LOBBY_ZN_1_FLR_2 ZN,0.0,64.00,0.00,4.00,71.50,7.00,6.00,1,1,1,64.00,79.00,0.00,14.00,4.00,8.00,4.00,840.00,TARP,TARP,210.00,60.00,39.00,21.00,7,1,0,Yes
 Zone Information, MAIN_CORRIDOR_ZN_1_FLR_1 ZN,0.0,64.00,14.00,0.00,71.50,52.00,2.00,1,1,1,64.00,79.00,14.00,90.00,0.00,4.00,4.00,4560.00,TARP,TARP,1140.00,140.00,87.10,48.99,14,6,0,Yes
 Zone Information, MAIN_CORRIDOR_ZN_1_FLR_2 ZN,0.0,64.00,14.00,4.00,71.50,52.00,6.00,1,1,1,64.00,79.00,14.00,90.00,4.00,8.00,4.00,4560.00,TARP,TARP,1140.00,140.00,91.00,49.00,14,2,0,Yes
 Zone Information, MECH_ZN_1_FLR_1 ZN,0.0,79.00,66.00,0.00,98.00,70.50,2.00,1,1,1,79.00,117.00,66.00,75.00,0.00,4.00,4.00,1368.00,TARP,TARP,342.00,0.00,0.00,0.00,6,0,0,Yes
 Zone Information, MECH_ZN_1_FLR_2 ZN,0.0,79.00,66.00,4.00,98.00,70.50,6.00,1,1,1,79.00,117.00,66.00,75.00,4.00,8.00,4.00,1368.00,TARP,TARP,342.00,0.00,0.00,0.00,6,0,0,Yes
 Zone Information, MULT_CLASS_1_POD_1_ZN_1_FLR_1 ZN,0.0,11.00,0.00,0.00,37.50,4.50,2.00,1,1,1,11.00,64.00,0.00,9.00,0.00,4.00,4.00,1908.00,TARP,TARP,477.00,212.00,133.90,74.20,6,5,0,Yes
 Zone Information, MULT_CLASS_1_POD_1_ZN_1_FLR_2 ZN,0.0,11.00,0.00,4.00,37.50,4.50,6.00,1,1,1,11.00,64.00,0.00,9.00,4.00,8.00,4.00,1908.00,TARP,TARP,477.00,212.00,137.80,74.20,6,1,0,Yes
 Zone Information, MULT_CLASS_1_POD_2_ZN_1_FLR_1 ZN,0.0,11.00,40.00,0.00,37.50,44.50,2.00,1,1,1,11.00,64.00,40.00,49.00,0.00,4.00,4.00,1908.00,TARP,TARP,477.00,212.00,133.90,74.20,6,5,0,Yes
 Zone Information, MULT_CLASS_1_POD_2_ZN_1_FLR_2 ZN,0.0,11.00,40.00,4.00,37.50,44.50,6.00,1,1,1,11.00,64.00,40.00,49.00,4.00,8.00,4.00,1908.00,TARP,TARP,477.00,212.00,137.80,74.20,6,1,0,Yes
 Zone Information, MULT_CLASS_1_POD_3_ZN_1_FLR_1 ZN,0.0,11.00,81.00,0.00,37.50,85.50,2.00,1,1,1,11.00,64.00,81.00,90.00,0.00,4.00,4.00,1908.00,TARP,TARP,477.00,212.00,133.90,74.20,6,5,0,Yes
 Zone Information, MULT_CLASS_1_POD_3_ZN_1_FLR_2 ZN,0.0,11.00,81.00,4.00,37.50,85.50,6.00,1,1,1,11.00,64.00,81.00,90.00,4.00,8.00,4.00,1908.00,TARP,TARP,477.00,212.00,137.80,74.20,6,1,0,Yes
 Zone Information, MULT_CLASS_2_POD_1_ZN_1_FLR_1 ZN,0.0,11.00,14.00,0.00,37.50,18.50,2.00,1,1,1,11.00,64.00,14.00,23.00,0.00,4.00,4.00,1908.00,TARP,TARP,477.00,212.00,133.90,74.20,6,5,0,Yes
 Zone Information, MULT_CLASS_2_POD_1_ZN_1_FLR_2 ZN,0.0,11.00,14.00,4.00,37.50,18.50,6.00,1,1,1,11.00,64.00,14.00,23.00,4.00,8.00,4.00,1908.00,TARP,TARP,477.00,212.00,137.80,74.20,6,1,0,Yes
 Zone Information, MULT_CLASS_2_POD_2_ZN_1_FLR_1 ZN,0.0,11.00,54.00,0.00,37.50,58.50,2.00,1,1,1,11.00,64.00,54.00,63.00,0.00,4.00,4.00,1908.00,TARP,TARP,477.00,212.00,133.90,74.20,6,5,0,Yes
 Zone Information, MULT_CLASS_2_POD_2_ZN_1_FLR_2 ZN,0.0,11.00,54.00,4.00,37.50,58.50,6.00,1,1,1,11.00,64.00,54.00,63.00,4.00,8.00,4.00,1908.00,TARP,TARP,477.00,212.00,137.80,74.20,6,1,0,Yes
 Zone Information, MULT_CLASS_2_POD_3_ZN_1_FLR_1 ZN,0.0,11.00,95.00,0.00,37.50,99.50,2.00,1,1,1,11.00,64.00,95.00,104.00,0.00,4.00,4.00,1908.00,TARP,TARP,477.00,212.00,133.90,74.19,6,5,0,Yes
 Zone Information, MULT_CLASS_2_POD_3_ZN_1_FLR_2 ZN,0.0,11.00,95.00,4.00,37.50,99.50,6.00,1,1,1,11.00,64.00,95.00,104.00,4.00,8.00,4.00,1908.00,TARP,TARP,477.00,212.00,137.80,74.20,6,1,0,Yes
 Zone Information, OFFICES_ZN_1_FLR_1 ZN,0.0,79.00,0.00,0.00,98.00,7.00,2.00,1,1,1,79.00,117.00,0.00,14.00,0.00,4.00,4.00,2128.00,TARP,TARP,532.00,208.00,131.30,72.80,6,6,0,Yes
 Zone Information, OFFICES_ZN_1_FLR_2 ZN,0.0,79.00,0.00,4.00,98.00,7.00,6.00,1,1,1,79.00,117.00,0.00,14.00,4.00,8.00,4.00,2128.00,TARP,TARP,532.00,208.00,135.20,72.80,6,2,0,Yes
! <Zone Internal Gains Nominal>,Zone Name, Floor Area {m2},# Occupants,Area per Occupant {m2/person},Occupant per Area {person/m2},Interior Lighting {W/m2},Electric Load {W/m2},Gas Load {W/m2},Other Load {W/m2},Hot Water Eq {W/m2},Steam Equipment {W/m2},Sum Loads per Area {W/m2},Outdoor Controlled Baseboard Heat
 Zone Internal Gains Nominal, AUDITORIUM_ZN_1_FLR_1 ZN,988.00,1595.2,0.619,1.615,8.503,4.951,0.000,0.000,0.000,0.000,13.455,No
 Zone Internal Gains Nominal, AUX_GYM_ZN_1_FLR_1 ZN,1248.00,403.0,3.097,0.323,7.750,4.951,0.000,0.000,0.000,0.000,12.701,No
 Zone Internal Gains Nominal, BATHROOMS_ZN_1_FLR_1 ZN,210.00,0.0,N/A,0.000,10.549,3.983,0.000,0.000,0.000,0.000,14.531,No
 Zone Internal Gains Nominal, BATHROOMS_ZN_1_FLR_2 ZN,210.00,0.0,N/A,0.000,10.549,3.983,0.000,0.000,0.000,0.000,14.531,No
 Zone Internal Gains Nominal, CAFETERIA_ZN_1_FLR_1 ZN,624.00,671.7,0.929,1.076,6.997,76.962,0.000,0.000,0.000,0.000,83.959,No
 Zone Internal Gains Nominal, CORNER_CLASS_1_POD_1_ZN_1_FLR_1 ZN,99.00,37.3,2.654,0.377,13.347,10.000,0.000,0.000,0.000,0.000,23.347,No
 Zone Internal Gains Nominal, CORNER_CLASS_1_POD_1_ZN_1_FLR_2 ZN,99.00,37.3,2.654,0.377,13.347,10.000,0.000,0.000,0.000,0.000,23.347,No
 Zone Internal Gains Nominal, CORNER_CLASS_1_POD_2_ZN_1_FLR_1 ZN,99.00,37.3,2.654,0.377,13.347,10.000,0.000,0.000,0.000,0.000,23.347,No
 Zone Internal Gains Nominal, CORNER_CLASS_1_POD_2_ZN_1_FLR_2 ZN,99.00,37.3,2.654,0.377,13.347,10.000,0.000,0.000,0.000,0.000,23.347,No
 Zone Internal Gains Nominal, CORNER_CLASS_1_POD_3_ZN_1_FLR_1 ZN,99.00,37.3,2.654,0.377,13.347,10.000,0.000,0.000,0.000,0.000,23.347,No
 Zone Internal Gains Nominal, CORNER_CLASS_1_POD_3_ZN_1_FLR_2 ZN,99.00,37.3,2.654,0.377,13.347,10.000,0.000,0.000,0.000,0.000,23.347,No
 Zone Internal Gains Nominal, CORNER_CLASS_2_POD_1_ZN_1_FLR_1 ZN,99.00,37.3,2.654,0.377,13.347,10.000,0.000,0.000,0.000,0.000,23.347,No
 Zone Internal Gains Nominal, CORNER_CLASS_2_POD_1_ZN_1_FLR_2 ZN,99.00,37.3,2.654,0.377,13.347,10.000,0.000,0.000,0.000,0.000,23.347,No
 Zone Internal Gains Nominal, CORNER_CLASS_2_POD_2_ZN_1_FLR_1 ZN,99.00,37.3,2.654,0.377,13.347,10.000,0.000,0.000,0.000,0.000,23.347,No
 Zone Internal Gains Nominal, CORNER_CLASS_2_POD_2_ZN_1_FLR_2 ZN,99.00,37.3,2.654,0.377,13.347,10.000,0.000,0.000,0.000,0.000,23.347,No
 Zone Internal Gains Nominal, CORNER_CLASS_2_POD_3_ZN_1_FLR_1 ZN,99.00,37.3,2.654,0.377,13.347,10.000,0.000,0.000,0.000,0.000,23.347,No
 Zone Internal Gains Nominal, CORNER_CLASS_2_POD_3_ZN_1_FLR_2 ZN,99.00,37.3,2.654,0.377,13.347,10.000,0.000,0.000,0.000,0.000,23.347,No
 Zone Internal Gains Nominal, CORRIDOR_POD_1_ZN_1_FLR_1 ZN,320.00,0.0,N/A,0.000,7.104,3.983,0.000,0.000,0.000,0.000,11.087,No
 Zone Internal Gains Nominal, CORRIDOR_POD_1_ZN_1_FLR_2 ZN,320.00,0.0,N/A,0.000,7.104,3.983,0.000,0.000,0.000,0.000,11.087,No
 Zone Internal Gains Nominal, CORRIDOR_POD_2_ZN_1_FLR_1 ZN,320.00,0.0,N/A,0.000,7.104,3.983,0.000,0.000,0.000,0.000,11.087,No
 Zone Internal Gains Nominal, CORRIDOR_POD_2_ZN_1_FLR_2 ZN,320.00,0.0,N/A,0.000,7.104,3.983,0.000,0.000,0.000,0.000,11.087,No
 Zone Internal Gains Nominal, CORRIDOR_POD_3_ZN_1_FLR_1 ZN,320.00,0.0,N/A,0.000,7.104,3.983,0.000,0.000,0.000,0.000,11.087,No
 Zone Internal Gains Nominal, CORRIDOR_POD_3_ZN_1_FLR_2 ZN,320.00,0.0,N/A,0.000,7.104,3.983,0.000,0.000,0.000,0.000,11.087,No
 Zone Internal Gains Nominal, GYM_ZN_1_FLR_1 ZN,1976.00,638.1,3.097,0.323,7.750,4.951,0.000,0.000,0.000,0.000,12.701,No
 Zone Internal Gains Nominal, KITCHEN_ZN_1_FLR_1 ZN,216.00,35.4,6.100,0.164,10.656,230.997,1678.558,0.000,0.000,0.000,1920.211,No
 Zone Internal Gains Nominal, LIBRARY_MEDIA_CENTER_ZN_1_FLR_2 ZN,840.00,90.4,9.290,0.108,12.701,10.010,0.000,0.000,0.000,0.000,22.712,No
 Zone Internal Gains Nominal, LOBBY_ZN_1_FLR_1 ZN,210.00,0.0,N/A,0.000,9.688,3.983,0.000,0.000,0.000,0.000,13.670,No
 Zone Internal Gains Nominal, LOBBY_ZN_1_FLR_2 ZN,210.00,0.0,N/A,0.000,9.688,3.983,0.000,0.000,0.000,0.000,13.670,No
 Zone Internal Gains Nominal, MAIN_CORRIDOR_ZN_1_FLR_1 ZN,1140.00,0.0,N/A,0.000,7.104,3.983,0.000,0.000,0.000,0.000,11.087,No
 Zone Internal Gains Nominal, MAIN_CORRIDOR_ZN_1_FLR_2 ZN,1140.00,0.0,N/A,0.000,7.104,3.983,0.000,0.000,0.000,0.000,11.087,No
 Zone Internal Gains Nominal, MECH_ZN_1_FLR_1 ZN,342.00,0.0,N/A,0.000,10.226,98.498,0.000,0.000,0.000,0.000,108.723,No
 Zone Internal Gains Nominal, MECH_ZN_1_FLR_2 ZN,342.00,0.0,N/A,0.000,10.226,3.983,0.000,0.000,0.000,0.000,14.208,No
 Zone Internal Gains Nominal, MULT_CLASS_1_POD_1_ZN_1_FLR_1 ZN,477.00,179.7,2.654,0.377,13.347,10.000,0.000,0.000,0.000,0.000,23.347,No
 Zone Internal Gains Nominal, MULT_CLASS_1_POD_1_ZN_1_FLR_2 ZN,477.00,179.7,2.654,0.377,13.347,10.000,0.000,0.000,0.000,0.000,23.347,No
 Zone Internal Gains Nominal, MULT_CLASS_1_POD_2_ZN_1_FLR_1 ZN,477.00,179.7,2.654,0.377,13.347,10.000,0.000,0.000,0.000,0.000,23.347,No
 Zone Internal Gains Nominal, MULT_CLASS_1_POD_2_ZN_1_FLR_2 ZN,477.00,179.7,2.654,0.377,13.347,10.000,0.000,0.000,0.000,0.000,23.347,No
 Zone Internal Gains Nominal, MULT_CLASS_1_POD_3_ZN_1_FLR_1 ZN,477.00,179.7,2.654,0.377,13.347,10.000,0.000,0.000,0.000,0.000,23.347,No
 Zone Internal Gains Nominal, MULT_CLASS_1_POD_3_ZN_1_FLR_2 ZN,477.00,179.7,2.654,0.377,13.347,19.999,0.000,0.000,0.000,0.000,33.347,No
 Zone Internal Gains Nominal, MULT_CLASS_2_POD_1_ZN_1_FLR_1 ZN,477.00,179.7,2.654,0.377,13.347,10.000,0.000,0.000,0.000,0.000,23.347,No
 Zone Internal Gains Nominal, MULT_CLASS_2_POD_1_ZN_1_FLR_2 ZN,477.00,179.7,2.654,0.377,13.347,10.000,0.000,0.000,0.000,0.000,23.347,No
 Zone Internal Gains Nominal, MULT_CLASS_2_POD_2_ZN_1_FLR_1 ZN,477.00,179.7,2.654,0.377,13.347,10.000,0.000,0.000,0.000,0.000,23.347,No
 Zone Internal Gains Nominal, MULT_CLASS_2_POD_2_ZN_1_FLR_2 ZN,477.00,179.7,2.654,0.377,13.347,10.000,0.000,0.000,0.000,0.000,23.347,No
 Zone Internal Gains Nominal, MULT_CLASS_2_POD_3_ZN_1_FLR_1 ZN,477.00,179.7,2.654,0.377,13.347,10.000,0.000,0.000,0.000,0.000,23.347,No
 Zone Internal Gains Nominal, MULT_CLASS_2_POD_3_ZN_1_FLR_2 ZN,477.00,179.7,2.654,0.377,13.347,19.999,0.000,0.000,0.000,0.000,33.347,No
 Zone Internal Gains Nominal, OFFICES_ZN_1_FLR_1 ZN,532.00,28.6,18.581,5.382E-002,11.948,10.764,0.000,0.000,0.000,0.000,22.712,No
 Zone Internal Gains Nominal, OFFICES_ZN_1_FLR_2 ZN,532.00,28.6,18.581,5.382E-002,11.948,10.764,0.000,0.000,0.000,0.000,22.712,No
! <People Internal Gains Nominal>,Name,Schedule Name,Zone Name,Zone Floor Area {m2},# Zone Occupants,Number of People {},People/Floor Area {person/m2},Floor Area per person {m2/person},Fraction Radiant,Fraction Convected,Sensible Fraction Calculation,Activity level,ASHRAE 55 Warnings,Carbon Dioxide Generation Rate,Nominal Minimum Number of People,Nominal Maximum Number of People
 People Internal Gains Nominal, AUDITORIUM_ZN_1_FLR_1 ZN SECONDARYSCHOOL AUDITORIUM PEOPLE,SCHOOLSECONDARY BLDG_OCC_SCH_AUDITORIUM,AUDITORIUM_ZN_1_FLR_1 ZN,988.00,1595.2,1595.2,1.615,0.619,0.300,0.700,AutoCalculate,SCHOOLSECONDARY ACTIVITY_SCH,No,3.8200E-008,0,1515
 People Internal Gains Nominal, CAFETERIA_ZN_1_FLR_1 ZN SECONDARYSCHOOL CAFETERIA PEOPLE,SCHOOLSECONDARY BLDG_OCC_SCH_CAFETERIA,CAFETERIA_ZN_1_FLR_1 ZN,624.00,671.7,671.7,1.076,0.929,0.300,0.700,AutoCalculate,SCHOOLSECONDARY ACTIVITY_SCH,No,3.8200E-008,0,638
 People Internal Gains Nominal, CORNER_CLASS_1_POD_1_ZN_1_FLR_1 ZN SECONDARYSCHOOL CLASSROOM PEOPLE,SCHOOLSECONDARY BLDG_OCC_SCH,CORNER_CLASS_1_POD_1_ZN_1_FLR_1 ZN,99.00,37.3,37.3,0.377,2.654,0.300,0.700,AutoCalculate,SCHOOLSECONDARY ACTIVITY_SCH,No,3.8200E-008,0,35
 People Internal Gains Nominal, CORNER_CLASS_1_POD_1_ZN_1_FLR_2 ZN SECONDARYSCHOOL CLASSROOM PEOPLE,SCHOOLSECONDARY BLDG_OCC_SCH,CORNER_CLASS_1_POD_1_ZN_1_FLR_2 ZN,99.00,37.3,37.3,0.377,2.654,0.300,0.700,AutoCalculate,SCHOOLSECONDARY ACTIVITY_SCH,No,3.8200E-008,0,35
 People Internal Gains Nominal, CORNER_CLASS_1_POD_2_ZN_1_FLR_1 ZN SECONDARYSCHOOL CLASSROOM PEOPLE,SCHOOLSECONDARY BLDG_OCC_SCH,CORNER_CLASS_1_POD_2_ZN_1_FLR_1 ZN,99.00,37.3,37.3,0.377,2.654,0.300,0.700,AutoCalculate,SCHOOLSECONDARY ACTIVITY_SCH,No,3.8200E-008,0,35
 People Internal Gains Nominal, CORNER_CLASS_1_POD_2_ZN_1_FLR_2 ZN SECONDARYSCHOOL CLASSROOM PEOPLE,SCHOOLSECONDARY BLDG_OCC_SCH,CORNER_CLASS_1_POD_2_ZN_1_FLR_2 ZN,99.00,37.3,37.3,0.377,2.654,0.300,0.700,AutoCalculate,SCHOOLSECONDARY ACTIVITY_SCH,No,3.8200E-008,0,35
 People Internal Gains Nominal, CORNER_CLASS_1_POD_3_ZN_1_FLR_1 ZN SECONDARYSCHOOL CLASSROOM PEOPLE,SCHOOLSECONDARY BLDG_OCC_SCH,CORNER_CLASS_1_POD_3_ZN_1_FLR_1 ZN,99.00,37.3,37.3,0.377,2.654,0.300,0.700,AutoCalculate,SCHOOLSECONDARY ACTIVITY_SCH,No,3.8200E-008,0,35
 People Internal Gains Nominal, CORNER_CLASS_1_POD_3_ZN_1_FLR_2 ZN SECONDARYSCHOOL CLASSROOM PEOPLE,SCHOOLSECONDARY BLDG_OCC_SCH,CORNER_CLASS_1_POD_3_ZN_1_FLR_2 ZN,99.00,37.3,37.3,0.377,2.654,0.300,0.700,AutoCalculate,SCHOOLSECONDARY ACTIVITY_SCH,No,3.8200E-008,0,35
 People Internal Gains Nominal, CORNER_CLASS_2_POD_1_ZN_1_FLR_1 ZN SECONDARYSCHOOL CLASSROOM PEOPLE,SCHOOLSECONDARY BLDG_OCC_SCH,CORNER_CLASS_2_POD_1_ZN_1_FLR_1 ZN,99.00,37.3,37.3,0.377,2.654,0.300,0.700,AutoCalculate,SCHOOLSECONDARY ACTIVITY_SCH,No,3.8200E-008,0,35
 People Internal Gains Nominal, CORNER_CLASS_2_POD_1_ZN_1_FLR_2 ZN SECONDARYSCHOOL CLASSROOM PEOPLE,SCHOOLSECONDARY BLDG_OCC_SCH,CORNER_CLASS_2_POD_1_ZN_1_FLR_2 ZN,99.00,37.3,37.3,0.377,2.654,0.300,0.700,AutoCalculate,SCHOOLSECONDARY ACTIVITY_SCH,No,3.8200E-008,0,35
 People Internal Gains Nominal, CORNER_CLASS_2_POD_2_ZN_1_FLR_1 ZN SECONDARYSCHOOL CLASSROOM PEOPLE,SCHOOLSECONDARY BLDG_OCC_SCH,CORNER_CLASS_2_POD_2_ZN_1_FLR_1 ZN,99.00,37.3,37.3,0.377,2.654,0.300,0.700,AutoCalculate,SCHOOLSECONDARY ACTIVITY_SCH,No,3.8200E-008,0,35
 People Internal Gains Nominal, CORNER_CLASS_2_POD_2_ZN_1_FLR_2 ZN SECONDARYSCHOOL CLASSROOM PEOPLE,SCHOOLSECONDARY BLDG_OCC_SCH,CORNER_CLASS_2_POD_2_ZN_1_FLR_2 ZN,99.00,37.3,37.3,0.377,2.654,0.300,0.700,AutoCalculate,SCHOOLSECONDARY ACTIVITY_SCH,No,3.8200E-008,0,35
 People Internal Gains Nominal, CORNER_CLASS_2_POD_3_ZN_1_FLR_1 ZN SECONDARYSCHOOL CLASSROOM PEOPLE,SCHOOLSECONDARY BLDG_OCC_SCH,CORNER_CLASS_2_POD_3_ZN_1_FLR_1 ZN,99.00,37.3,37.3,0.377,2.654,0.300,0.700,AutoCalculate,SCHOOLSECONDARY ACTIVITY_SCH,No,3.8200E-008,0,35
 People Internal Gains Nominal, CORNER_CLASS_2_POD_3_ZN_1_FLR_2 ZN SECONDARYSCHOOL CLASSROOM PEOPLE,SCHOOLSECONDARY BLDG_OCC_SCH,CORNER_CLASS_2_POD_3_ZN_1_FLR_2 ZN,99.00,37.3,37.3,0.377,2.654,0.300,0.700,AutoCalculate,SCHOOLSECONDARY ACTIVITY_SCH,No,3.8200E-008,0,35
 People Internal Gains Nominal, MULT_CLASS_1_POD_1_ZN_1_FLR_1 ZN SECONDARYSCHOOL CLASSROOM PEOPLE,SCHOOLSECONDARY BLDG_OCC_SCH,MULT_CLASS_1_POD_1_ZN_1_FLR_1 ZN,477.00,179.7,179.7,0.377,2.654,0.300,0.700,AutoCalculate,SCHOOLSECONDARY ACTIVITY_SCH,No,3.8200E-008,0,171
 People Internal Gains Nominal, MULT_CLASS_1_POD_1_ZN_1_FLR_2 ZN SECONDARYSCHOOL CLASSROOM PEOPLE,SCHOOLSECONDARY BLDG_OCC_SCH,MULT_CLASS_1_POD_1_ZN_1_FLR_2 ZN,477.00,179.7,179.7,0.377,2.654,0.300,0.700,AutoCalculate,SCHOOLSECONDARY ACTIVITY_SCH,No,3.8200E-008,0,171
 People Internal Gains Nominal, MULT_CLASS_1_POD_2_ZN_1_FLR_1 ZN SECONDARYSCHOOL CLASSROOM PEOPLE,SCHOOLSECONDARY BLDG_OCC_SCH,MULT_CLASS_1_POD_2_ZN_1_FLR_1 ZN,477.00,179.7,179.7,0.377,2.654,0.300,0.700,AutoCalculate,SCHOOLSECONDARY ACTIVITY_SCH,No,3.8200E-008,0,171
 People Internal Gains Nominal, MULT_CLASS_1_POD_2_ZN_1_FLR_2 ZN SECONDARYSCHOOL CLASSROOM PEOPLE,SCHOOLSECONDARY BLDG_OCC_SCH,MULT_CLASS_1_POD_2_ZN_1_FLR_2 ZN,477.00,179.7,179.7,0.377,2.654,0.300,0.700,AutoCalculate,SCHOOLSECONDARY ACTIVITY_SCH,No,3.8200E-008,0,171
 People Internal Gains Nominal, MULT_CLASS_1_POD_3_ZN_1_FLR_1 ZN SECONDARYSCHOOL CLASSROOM PEOPLE,SCHOOLSECONDARY BLDG_OCC_SCH,MULT_CLASS_1_POD_3_ZN_1_FLR_1 ZN,477.00,179.7,179.7,0.377,2.654,0.300,0.700,AutoCalculate,SCHOOLSECONDARY ACTIVITY_SCH,No,3.8200E-008,0,171
 People Internal Gains Nominal, MULT_CLASS_2_POD_1_ZN_1_FLR_1 ZN SECONDARYSCHOOL CLASSROOM PEOPLE,SCHOOLSECONDARY BLDG_OCC_SCH,MULT_CLASS_2_POD_1_ZN_1_FLR_1 ZN,477.00,179.7,179.7,0.377,2.654,0.300,0.700,AutoCalculate,SCHOOLSECONDARY ACTIVITY_SCH,No,3.8200E-008,0,171
 People Internal Gains Nominal, MULT_CLASS_2_POD_1_ZN_1_FLR_2 ZN SECONDARYSCHOOL CLASSROOM PEOPLE,SCHOOLSECONDARY BLDG_OCC_SCH,MULT_CLASS_2_POD_1_ZN_1_FLR_2 ZN,477.00,179.7,179.7,0.377,2.654,0.300,0.700,AutoCalculate,SCHOOLSECONDARY ACTIVITY_SCH,No,3.8200E-008,0,171
 People Internal Gains Nominal, MULT_CLASS_2_POD_2_ZN_1_FLR_1 ZN SECONDARYSCHOOL CLASSROOM PEOPLE,SCHOOLSECONDARY BLDG_OCC_SCH,MULT_CLASS_2_POD_2_ZN_1_FLR_1 ZN,477.00,179.7,179.7,0.377,2.654,0.300,0.700,AutoCalculate,SCHOOLSECONDARY ACTIVITY_SCH,No,3.8200E-008,0,171
 People Internal Gains Nominal, MULT_CLASS_2_POD_2_ZN_1_FLR_2 ZN SECONDARYSCHOOL CLASSROOM PEOPLE,SCHOOLSECONDARY BLDG_OCC_SCH,MULT_CLASS_2_POD_2_ZN_1_FLR_2 ZN,477.00,179.7,179.7,0.377,2.654,0.300,0.700,AutoCalculate,SCHOOLSECONDARY ACTIVITY_SCH,No,3.8200E-008,0,171
 People Internal Gains Nominal, MULT_CLASS_2_POD_3_ZN_1_FLR_1 ZN SECONDARYSCHOOL CLASSROOM PEOPLE,SCHOOLSECONDARY BLDG_OCC_SCH,MULT_CLASS_2_POD_3_ZN_1_FLR_1 ZN,477.00,179.7,179.7,0.377,2.654,0.300,0.700,AutoCalculate,SCHOOLSECONDARY ACTIVITY_SCH,No,3.8200E-008,0,171
 People Internal Gains Nominal, MULT_CLASS_1_POD_3_ZN_1_FLR_2 ZN SECONDARYSCHOOL COMPUTERROOM PEOPLE,SCHOOLSECONDARY BLDG_OCC_SCH,MULT_CLASS_1_POD_3_ZN_1_FLR_2 ZN,477.00,179.7,179.7,0.377,2.654,0.300,0.700,AutoCalculate,SCHOOLSECONDARY ACTIVITY_SCH,No,3.8200E-008,0,171
 People Internal Gains Nominal, MULT_CLASS_2_POD_3_ZN_1_FLR_2 ZN SECONDARYSCHOOL COMPUTERROOM PEOPLE,SCHOOLSECONDARY BLDG_OCC_SCH,MULT_CLASS_2_POD_3_ZN_1_FLR_2 ZN,477.00,179.7,179.7,0.377,2.654,0.300,0.700,AutoCalculate,SCHOOLSECONDARY ACTIVITY_SCH,No,3.8200E-008,0,171
 People Internal Gains Nominal, AUX_GYM_ZN_1_FLR_1 ZN SECONDARYSCHOOL GYM PEOPLE,SCHOOLSECONDARY BLDG_OCC_SCH_GYM,AUX_GYM_ZN_1_FLR_1 ZN,1248.00,403.0,403.0,0.323,3.097,0.300,0.700,AutoCalculate,SCHOOLSECONDARY ACTIVITY_SCH,No,3.8200E-008,0,383
 People Internal Gains Nominal, GYM_ZN_1_FLR_1 ZN SECONDARYSCHOOL GYM PEOPLE,SCHOOLSECONDARY BLDG_OCC_SCH_GYM,GYM_ZN_1_FLR_1 ZN,1976.00,638.1,638.1,0.323,3.097,0.300,0.700,AutoCalculate,SCHOOLSECONDARY ACTIVITY_SCH,No,3.8200E-008,0,606
 People Internal Gains Nominal, KITCHEN_ZN_1_FLR_1 ZN SECONDARYSCHOOL KITCHEN PEOPLE,SCHOOLSECONDARY BLDG_OCC_SCH,KITCHEN_ZN_1_FLR_1 ZN,216.00,35.4,35.4,0.164,6.100,0.300,0.700,AutoCalculate,SCHOOLSECONDARY ACTIVITY_SCH,No,3.8200E-008,0,34
 People Internal Gains Nominal, LIBRARY_MEDIA_CENTER_ZN_1_FLR_2 ZN SECONDARYSCHOOL LIBRARY PEOPLE,SCHOOLSECONDARY BLDG_OCC_SCH,LIBRARY_MEDIA_CENTER_ZN_1_FLR_2 ZN,840.00,90.4,90.4,0.108,9.290,0.300,0.700,AutoCalculate,SCHOOLSECONDARY ACTIVITY_SCH,No,3.8200E-008,0,86
 People Internal Gains Nominal, OFFICES_ZN_1_FLR_1 ZN SECONDARYSCHOOL OFFICE PEOPLE,SCHOOLSECONDARY BLDG_OCC_SCH_OFFICES,OFFICES_ZN_1_FLR_1 ZN,532.00,28.6,28.6,5.382E-002,18.581,0.300,0.700,AutoCalculate,SCHOOLSECONDARY ACTIVITY_SCH,No,3.8200E-008,0,27
 People Internal Gains Nominal, OFFICES_ZN_1_FLR_2 ZN SECONDARYSCHOOL OFFICE PEOPLE,SCHOOLSECONDARY BLDG_OCC_SCH_OFFICES,OFFICES_ZN_1_FLR_2 ZN,532.00,28.6,28.6,5.382E-002,18.581,0.300,0.700,AutoCalculate,SCHOOLSECONDARY ACTIVITY_SCH,No,3.8200E-008,0,27
! <Lights Internal Gains Nominal>,Name,Schedule Name,Zone Name,Zone Floor Area {m2},# Zone Occupants,Lighting Level {W},Lights/Floor Area {W/m2},Lights per person {W/person},Fraction Return Air,Fraction Radiant,Fraction Short Wave,Fraction Convected,Fraction Replaceable,End-Use Category,Nominal Minimum Lighting Level {W},Nominal Maximum Lighting Level {W}
 Lights Internal Gains Nominal, AUDITORIUM_ZN_1_FLR_1 ZN SECONDARYSCHOOL AUDITORIUM LIGHTS,SCHOOLSECONDARY BLDG_LIGHT_SCH_2010,AUDITORIUM_ZN_1_FLR_1 ZN,988.00,1595.2,8401.447,8.503,5.267,0.000,0.370,0.200,0.430,1.000,General,0.000,8401.447
 Lights Internal Gains Nominal, CAFETERIA_ZN_1_FLR_1 ZN SECONDARYSCHOOL CAFETERIA LIGHTS,SCHOOLSECONDARY BLDG_LIGHT_SCH_2010,CAFETERIA_ZN_1_FLR_1 ZN,624.00,671.7,4365.842,6.997,6.500,0.000,0.370,0.200,0.430,1.000,General,0.000,4365.842
 Lights Internal Gains Nominal, CORNER_CLASS_1_POD_1_ZN_1_FLR_1 ZN SECONDARYSCHOOL CLASSROOM LIGHTS,SCHOOLSECONDARY BLDG_LIGHT_CLASSROOM_SCH_2010 OCCSENSOR REDUCTION,CORNER_CLASS_1_POD_1_ZN_1_FLR_1 ZN,99.00,37.3,1321.378,13.347,35.429,0.000,0.370,0.200,0.430,1.000,General,0.000,1321.378
 Lights Internal Gains Nominal, CORNER_CLASS_1_POD_1_ZN_1_FLR_2 ZN SECONDARYSCHOOL CLASSROOM LIGHTS,SCHOOLSECONDARY BLDG_LIGHT_CLASSROOM_SCH_2010 OCCSENSOR REDUCTION,CORNER_CLASS_1_POD_1_ZN_1_FLR_2 ZN,99.00,37.3,1321.378,13.347,35.429,0.000,0.370,0.200,0.430,1.000,General,0.000,1321.378
 Lights Internal Gains Nominal, CORNER_CLASS_1_POD_2_ZN_1_FLR_1 ZN SECONDARYSCHOOL CLASSROOM LIGHTS,SCHOOLSECONDARY BLDG_LIGHT_CLASSROOM_SCH_2010 OCCSENSOR REDUCTION,CORNER_CLASS_1_POD_2_ZN_1_FLR_1 ZN,99.00,37.3,1321.378,13.347,35.429,0.000,0.370,0.200,0.430,1.000,General,0.000,1321.378
 Lights Internal Gains Nominal, CORNER_CLASS_1_POD_2_ZN_1_FLR_2 ZN SECONDARYSCHOOL CLASSROOM LIGHTS,SCHOOLSECONDARY BLDG_LIGHT_CLASSROOM_SCH_2010 OCCSENSOR REDUCTION,CORNER_CLASS_1_POD_2_ZN_1_FLR_2 ZN,99.00,37.3,1321.378,13.347,35.429,0.000,0.370,0.200,0.430,1.000,General,0.000,1321.378
 Lights Internal Gains Nominal, CORNER_CLASS_1_POD_3_ZN_1_FLR_1 ZN SECONDARYSCHOOL CLASSROOM LIGHTS,SCHOOLSECONDARY BLDG_LIGHT_CLASSROOM_SCH_2010 OCCSENSOR REDUCTION,CORNER_CLASS_1_POD_3_ZN_1_FLR_1 ZN,99.00,37.3,1321.378,13.347,35.429,0.000,0.370,0.200,0.430,1.000,General,0.000,1321.378
 Lights Internal Gains Nominal, CORNER_CLASS_1_POD_3_ZN_1_FLR_2 ZN SECONDARYSCHOOL CLASSROOM LIGHTS,SCHOOLSECONDARY BLDG_LIGHT_CLASSROOM_SCH_2010 OCCSENSOR REDUCTION,CORNER_CLASS_1_POD_3_ZN_1_FLR_2 ZN,99.00,37.3,1321.378,13.347,35.429,0.000,0.370,0.200,0.430,1.000,General,0.000,1321.378
 Lights Internal Gains Nominal, CORNER_CLASS_2_POD_1_ZN_1_FLR_1 ZN SECONDARYSCHOOL CLASSROOM LIGHTS,SCHOOLSECONDARY BLDG_LIGHT_CLASSROOM_SCH_2010 OCCSENSOR REDUCTION,CORNER_CLASS_2_POD_1_ZN_1_FLR_1 ZN,99.00,37.3,1321.378,13.347,35.429,0.000,0.370,0.200,0.430,1.000,General,0.000,1321.378
 Lights Internal Gains Nominal, CORNER_CLASS_2_POD_1_ZN_1_FLR_2 ZN SECONDARYSCHOOL CLASSROOM LIGHTS,SCHOOLSECONDARY BLDG_LIGHT_CLASSROOM_SCH_2010 OCCSENSOR REDUCTION,CORNER_CLASS_2_POD_1_ZN_1_FLR_2 ZN,99.00,37.3,1321.378,13.347,35.429,0.000,0.370,0.200,0.430,1.000,General,0.000,1321.378
 Lights Internal Gains Nominal, CORNER_CLASS_2_POD_2_ZN_1_FLR_1 ZN SECONDARYSCHOOL CLASSROOM LIGHTS,SCHOOLSECONDARY BLDG_LIGHT_CLASSROOM_SCH_2010 OCCSENSOR REDUCTION,CORNER_CLASS_2_POD_2_ZN_1_FLR_1 ZN,99.00,37.3,1321.378,13.347,35.429,0.000,0.370,0.200,0.430,1.000,General,0.000,1321.378
 Lights Internal Gains Nominal, CORNER_CLASS_2_POD_2_ZN_1_FLR_2 ZN SECONDARYSCHOOL CLASSROOM LIGHTS,SCHOOLSECONDARY BLDG_LIGHT_CLASSROOM_SCH_2010 OCCSENSOR REDUCTION,CORNER_CLASS_2_POD_2_ZN_1_FLR_2 ZN,99.00,37.3,1321.378,13.347,35.429,0.000,0.370,0.200,0.430,1.000,General,0.000,1321.378
 Lights Internal Gains Nominal, CORNER_CLASS_2_POD_3_ZN_1_FLR_1 ZN SECONDARYSCHOOL CLASSROOM LIGHTS,SCHOOLSECONDARY BLDG_LIGHT_CLASSROOM_SCH_2010 OCCSENSOR REDUCTION,CORNER_CLASS_2_POD_3_ZN_1_FLR_1 ZN,99.00,37.3,1321.378,13.347,35.429,0.000,0.370,0.200,0.430,1.000,General,0.000,1321.378
 Lights Internal Gains Nominal, CORNER_CLASS_2_POD_3_ZN_1_FLR_2 ZN SECONDARYSCHOOL CLASSROOM LIGHTS,SCHOOLSECONDARY BLDG_LIGHT_CLASSROOM_SCH_2010 OCCSENSOR REDUCTION,CORNER_CLASS_2_POD_3_ZN_1_FLR_2 ZN,99.00,37.3,1321.378,13.347,35.429,0.000,0.370,0.200,0.430,1.000,General,0.000,1321.378
 Lights Internal Gains Nominal, MULT_CLASS_1_POD_1_ZN_1_FLR_1 ZN SECONDARYSCHOOL CLASSROOM LIGHTS,SCHOOLSECONDARY BLDG_LIGHT_CLASSROOM_SCH_2010 OCCSENSOR REDUCTION,MULT_CLASS_1_POD_1_ZN_1_FLR_1 ZN,477.00,179.7,6366.638,13.347,35.429,0.000,0.370,0.200,0.430,1.000,General,0.000,6366.638
 Lights Internal Gains Nominal, MULT_CLASS_1_POD_1_ZN_1_FLR_2 ZN SECONDARYSCHOOL CLASSROOM LIGHTS,SCHOOLSECONDARY BLDG_LIGHT_CLASSROOM_SCH_2010 OCCSENSOR REDUCTION,MULT_CLASS_1_POD_1_ZN_1_FLR_2 ZN,477.00,179.7,6366.638,13.347,35.429,0.000,0.370,0.200,0.430,1.000,General,0.000,6366.638
 Lights Internal Gains Nominal, MULT_CLASS_1_POD_2_ZN_1_FLR_1 ZN SECONDARYSCHOOL CLASSROOM LIGHTS,SCHOOLSECONDARY BLDG_LIGHT_CLASSROOM_SCH_2010 OCCSENSOR REDUCTION,MULT_CLASS_1_POD_2_ZN_1_FLR_1 ZN,477.00,179.7,6366.638,13.347,35.429,0.000,0.370,0.200,0.430,1.000,General,0.000,6366.638
 Lights Internal Gains Nominal, MULT_CLASS_1_POD_2_ZN_1_FLR_2 ZN SECONDARYSCHOOL CLASSROOM LIGHTS,SCHOOLSECONDARY BLDG_LIGHT_CLASSROOM_SCH_2010 OCCSENSOR REDUCTION,MULT_CLASS_1_POD_2_ZN_1_FLR_2 ZN,477.00,179.7,6366.638,13.347,35.429,0.000,0.370,0.200,0.430,1.000,General,0.000,6366.638
 Lights Internal Gains Nominal, MULT_CLASS_1_POD_3_ZN_1_FLR_1 ZN SECONDARYSCHOOL CLASSROOM LIGHTS,SCHOOLSECONDARY BLDG_LIGHT_CLASSROOM_SCH_2010 OCCSENSOR REDUCTION,MULT_CLASS_1_POD_3_ZN_1_FLR_1 ZN,477.00,179.7,6366.638,13.347,35.429,0.000,0.370,0.200,0.430,1.000,General,0.000,6366.638
 Lights Internal Gains Nominal, MULT_CLASS_2_POD_1_ZN_1_FLR_1 ZN SECONDARYSCHOOL CLASSROOM LIGHTS,SCHOOLSECONDARY BLDG_LIGHT_CLASSROOM_SCH_2010 OCCSENSOR REDUCTION,MULT_CLASS_2_POD_1_ZN_1_FLR_1 ZN,477.00,179.7,6366.638,13.347,35.429,0.000,0.370,0.200,0.430,1.000,General,0.000,6366.638
 Lights Internal Gains Nominal, MULT_CLASS_2_POD_1_ZN_1_FLR_2 ZN SECONDARYSCHOOL CLASSROOM LIGHTS,SCHOOLSECONDARY BLDG_LIGHT_CLASSROOM_SCH_2010 OCCSENSOR REDUCTION,MULT_CLASS_2_POD_1_ZN_1_FLR_2 ZN,477.00,179.7,6366.638,13.347,35.429,0.000,0.370,0.200,0.430,1.000,General,0.000,6366.638
 Lights Internal Gains Nominal, MULT_CLASS_2_POD_2_ZN_1_FLR_1 ZN SECONDARYSCHOOL CLASSROOM LIGHTS,SCHOOLSECONDARY BLDG_LIGHT_CLASSROOM_SCH_2010 OCCSENSOR REDUCTION,MULT_CLASS_2_POD_2_ZN_1_FLR_1 ZN,477.00,179.7,6366.638,13.347,35.429,0.000,0.370,0.200,0.430,1.000,General,0.000,6366.638
 Lights Internal Gains Nominal, MULT_CLASS_2_POD_2_ZN_1_FLR_2 ZN SECONDARYSCHOOL CLASSROOM LIGHTS,SCHOOLSECONDARY BLDG_LIGHT_CLASSROOM_SCH_2010 OCCSENSOR REDUCTION,MULT_CLASS_2_POD_2_ZN_1_FLR_2 ZN,477.00,179.7,6366.638,13.347,35.429,0.000,0.370,0.200,0.430,1.000,General,0.000,6366.638
 Lights Internal Gains Nominal, MULT_CLASS_2_POD_3_ZN_1_FLR_1 ZN SECONDARYSCHOOL CLASSROOM LIGHTS,SCHOOLSECONDARY BLDG_LIGHT_CLASSROOM_SCH_2010 OCCSENSOR REDUCTION,MULT_CLASS_2_POD_3_ZN_1_FLR_1 ZN,477.00,179.7,6366.638,13.347,35.429,0.000,0.370,0.200,0.430,1.000,General,0.000,6366.638
 Lights Internal Gains Nominal, MULT_CLASS_1_POD_3_ZN_1_FLR_2 ZN SECONDARYSCHOOL COMPUTERROOM LIGHTS,SCHOOLSECONDARY BLDG_LIGHT_CLASSROOM_SCH_2010,MULT_CLASS_1_POD_3_ZN_1_FLR_2 ZN,477.00,179.7,6366.638,13.347,35.429,0.000,0.370,0.200,0.430,1.000,General,0.000,6366.638
 Lights Internal Gains Nominal, MULT_CLASS_2_POD_3_ZN_1_FLR_2 ZN SECONDARYSCHOOL COMPUTERROOM LIGHTS,SCHOOLSECONDARY BLDG_LIGHT_CLASSROOM_SCH_2010,MULT_CLASS_2_POD_3_ZN_1_FLR_2 ZN,477.00,179.7,6366.638,13.347,35.429,0.000,0.370,0.200,0.430,1.000,General,0.000,6366.638
 Lights Internal Gains Nominal, CORRIDOR_POD_1_ZN_1_FLR_1 ZN SECONDARYSCHOOL CORRIDOR LIGHTS,SCHOOLSECONDARY BLDG_LIGHT_CORRIDOR_SCH_2010,CORRIDOR_POD_1_ZN_1_FLR_1 ZN,320.00,0.0,2273.338,7.104,N/A,0.000,0.370,0.200,0.430,1.000,General,0.000,2273.338
 Lights Internal Gains Nominal, CORRIDOR_POD_1_ZN_1_FLR_2 ZN SECONDARYSCHOOL CORRIDOR LIGHTS,SCHOOLSECONDARY BLDG_LIGHT_CORRIDOR_SCH_2010,CORRIDOR_POD_1_ZN_1_FLR_2 ZN,320.00,0.0,2273.338,7.104,N/A,0.000,0.370,0.200,0.430,1.000,General,0.000,2273.338
 Lights Internal Gains Nominal, CORRIDOR_POD_2_ZN_1_FLR_1 ZN SECONDARYSCHOOL CORRIDOR LIGHTS,SCHOOLSECONDARY BLDG_LIGHT_CORRIDOR_SCH_2010,CORRIDOR_POD_2_ZN_1_FLR_1 ZN,320.00,0.0,2273.338,7.104,N/A,0.000,0.370,0.200,0.430,1.000,General,0.000,2273.338
 Lights Internal Gains Nominal, CORRIDOR_POD_2_ZN_1_FLR_2 ZN SECONDARYSCHOOL CORRIDOR LIGHTS,SCHOOLSECONDARY BLDG_LIGHT_CORRIDOR_SCH_2010,CORRIDOR_POD_2_ZN_1_FLR_2 ZN,320.00,0.0,2273.338,7.104,N/A,0.000,0.370,0.200,0.430,1.000,General,0.000,2273.338
 Lights Internal Gains Nominal, CORRIDOR_POD_3_ZN_1_FLR_1 ZN SECONDARYSCHOOL CORRIDOR LIGHTS,SCHOOLSECONDARY BLDG_LIGHT_CORRIDOR_SCH_2010,CORRIDOR_POD_3_ZN_1_FLR_1 ZN,320.00,0.0,2273.338,7.104,N/A,0.000,0.370,0.200,0.430,1.000,General,0.000,2273.338
 Lights Internal Gains Nominal, CORRIDOR_POD_3_ZN_1_FLR_2 ZN SECONDARYSCHOOL CORRIDOR LIGHTS,SCHOOLSECONDARY BLDG_LIGHT_CORRIDOR_SCH_2010,CORRIDOR_POD_3_ZN_1_FLR_2 ZN,320.00,0.0,2273.338,7.104,N/A,0.000,0.370,0.200,0.430,1.000,General,0.000,2273.338
 Lights Internal Gains Nominal, MAIN_CORRIDOR_ZN_1_FLR_1 ZN SECONDARYSCHOOL CORRIDOR LIGHTS,SCHOOLSECONDARY BLDG_LIGHT_CORRIDOR_SCH_2010,MAIN_CORRIDOR_ZN_1_FLR_1 ZN,1140.00,0.0,8098.766,7.104,N/A,0.000,0.370,0.200,0.430,1.000,General,0.000,8098.766
 Lights Internal Gains Nominal, MAIN_CORRIDOR_ZN_1_FLR_2 ZN SECONDARYSCHOOL CORRIDOR LIGHTS,SCHOOLSECONDARY BLDG_LIGHT_CORRIDOR_SCH_2010,MAIN_CORRIDOR_ZN_1_FLR_2 ZN,1140.00,0.0,8098.766,7.104,N/A,0.000,0.370,0.200,0.430,1.000,General,0.000,8098.766
 Lights Internal Gains Nominal, AUX_GYM_ZN_1_FLR_1 ZN SECONDARYSCHOOL GYM LIGHTS,SCHOOLSECONDARY BLDG_LIGHT_GYM_SCH_2010,AUX_GYM_ZN_1_FLR_1 ZN,1248.00,403.0,9672.019,7.750,24.000,0.000,0.370,0.200,0.430,1.000,General,0.000,9672.019
 Lights Internal Gains Nominal, GYM_ZN_1_FLR_1 ZN SECONDARYSCHOOL GYM LIGHTS,SCHOOLSECONDARY BLDG_LIGHT_GYM_SCH_2010,GYM_ZN_1_FLR_1 ZN,1976.00,638.1,15314.031,7.750,24.000,0.000,0.370,0.200,0.430,1.000,General,0.000,15314.031
 Lights Internal Gains Nominal, KITCHEN_ZN_1_FLR_1 ZN SECONDARYSCHOOL KITCHEN LIGHTS,SCHOOLSECONDARY BLDG_LIGHT_SCH_2010,KITCHEN_ZN_1_FLR_1 ZN,216.00,35.4,2301.755,10.656,65.003,0.000,0.370,0.200,0.430,1.000,General,0.000,2301.755
 Lights Internal Gains Nominal, LIBRARY_MEDIA_CENTER_ZN_1_FLR_2 ZN SECONDARYSCHOOL LIBRARY LIGHTS,SCHOOLSECONDARY BLDG_LIGHT_LIBRARY_SCH_2010,LIBRARY_MEDIA_CENTER_ZN_1_FLR_2 ZN,840.00,90.4,10669.188,12.701,118.000,0.000,0.370,0.200,0.430,1.000,General,0.000,10669.188
 Lights Internal Gains Nominal, LOBBY_ZN_1_FLR_1 ZN SECONDARYSCHOOL LOBBY LIGHTS,SCHOOLSECONDARY BLDG_LIGHT_LOBBYFLR1_SCH_2010,LOBBY_ZN_1_FLR_1 ZN,210.00,0.0,2034.379,9.688,N/A,0.000,0.370,0.200,0.430,1.000,General,0.000,2034.379
 Lights Internal Gains Nominal, LOBBY_ZN_1_FLR_2 ZN SECONDARYSCHOOL LOBBY LIGHTS,SCHOOLSECONDARY BLDG_LIGHT_LOBBYFLR1_SCH_2010,LOBBY_ZN_1_FLR_2 ZN,210.00,0.0,2034.379,9.688,N/A,0.000,0.370,0.200,0.430,1.000,General,0.000,2034.379
 Lights Internal Gains Nominal, MECH_ZN_1_FLR_1 ZN SECONDARYSCHOOL MECHANICAL LIGHTS,SCHOOLSECONDARY BLDG_LIGHT_MECHANICAL_SCH_2010,MECH_ZN_1_FLR_1 ZN,342.00,0.0,3497.194,10.226,N/A,0.000,0.370,0.200,0.430,1.000,General,0.000,3497.194
 Lights Internal Gains Nominal, MECH_ZN_1_FLR_2 ZN SECONDARYSCHOOL MECHANICAL LIGHTS,SCHOOLSECONDARY BLDG_LIGHT_MECHANICAL_SCH_2010,MECH_ZN_1_FLR_2 ZN,342.00,0.0,3497.194,10.226,N/A,0.000,0.370,0.200,0.430,1.000,General,0.000,3497.194
 Lights Internal Gains Nominal, OFFICES_ZN_1_FLR_1 ZN SECONDARYSCHOOL OFFICE LIGHTS,SCHOOLSECONDARY BLDG_LIGHT_OFFICE_SCH_2010 OCCSENSOR REDUCTION,OFFICES_ZN_1_FLR_1 ZN,532.00,28.6,6356.304,11.948,222.000,0.000,0.370,0.200,0.430,1.000,General,0.000,6356.304
 Lights Internal Gains Nominal, OFFICES_ZN_1_FLR_2 ZN SECONDARYSCHOOL OFFICE LIGHTS,SCHOOLSECONDARY BLDG_LIGHT_OFFICE_SCH_2010 OCCSENSOR REDUCTION,OFFICES_ZN_1_FLR_2 ZN,532.00,28.6,6356.304,11.948,222.000,0.000,0.370,0.200,0.430,1.000,General,0.000,6356.304
 Lights Internal Gains Nominal, BATHROOMS_ZN_1_FLR_1 ZN SECONDARYSCHOOL RESTROOM LIGHTS,SCHOOLSECONDARY BLDG_LIGHT_BATH_SCH_2010 OCCSENSOR REDUCTION,BATHROOMS_ZN_1_FLR_1 ZN,210.00,0.0,2215.213,10.549,N/A,0.000,0.370,0.200,0.430,1.000,General,0.000,2215.213
 Lights Internal Gains Nominal, BATHROOMS_ZN_1_FLR_2 ZN SECONDARYSCHOOL RESTROOM LIGHTS,SCHOOLSECONDARY BLDG_LIGHT_BATH_SCH_2010 OCCSENSOR REDUCTION,BATHROOMS_ZN_1_FLR_2 ZN,210.00,0.0,2215.213,10.549,N/A,0.000,0.370,0.200,0.430,1.000,General,0.000,2215.213
! <ElectricEquipment Internal Gains Nominal>,Name,Schedule Name,Zone Name,Zone Floor Area {m2},# Zone Occupants,Equipment Level {W},Equipment/Floor Area {W/m2},Equipment per person {W/person},Fraction Latent,Fraction Radiant,Fraction Lost,Fraction Convected,End-Use SubCategory,Nominal Minimum Equipment Level {W},Nominal Maximum Equipment Level {W}
 ElectricEquipment Internal Gains Nominal, 2 ELEVATOR FANS,SCHOOLSECONDARY ELEV_LIGHT_FAN_SCH_24_7,MECH_ZN_1_FLR_1 ZN,342.00,0.0,149.450,0.437,N/A,0.000,0.500,0.000,0.500,Elevators,149.450,149.450
 ElectricEquipment Internal Gains Nominal, 2 ELEVATOR LIFT MOTORS,SCHOOLSECONDARY BLDG_ELEVATORS,MECH_ZN_1_FLR_1 ZN,342.00,0.0,32110.000,93.889,N/A,0.000,0.500,0.000,0.500,Elevators,0.000,9633.000
 ElectricEquipment Internal Gains Nominal, 2 ELEVATOR LIGHTS,SCHOOLSECONDARY ELEV_LIGHT_FAN_SCH_24_7,MECH_ZN_1_FLR_1 ZN,342.00,0.0,64.697,0.189,N/A,0.000,0.500,0.000,0.500,Elevators,64.697,64.697
 ElectricEquipment Internal Gains Nominal, AUDITORIUM_ZN_1_FLR_1 ZN SECONDARYSCHOOL AUDITORIUM ELEC EQUIP,SCHOOLSECONDARY BLDG_EQUIP_SCH,AUDITORIUM_ZN_1_FLR_1 ZN,988.00,1595.2,4891.982,4.951,3.067,0.000,0.500,0.000,0.500,General,1222.996,4647.383
 ElectricEquipment Internal Gains Nominal, CAFETERIA_ZN_1_FLR_1 ZN SECONDARYSCHOOL CAFETERIA ELEC EQUIP,SCHOOLSECONDARY KITCHEN_ELEC_EQUIP_SCH,CAFETERIA_ZN_1_FLR_1 ZN,624.00,671.7,48024.263,76.962,71.500,0.000,0.500,0.000,0.500,General,4802.426,12006.066
 ElectricEquipment Internal Gains Nominal, CORNER_CLASS_1_POD_1_ZN_1_FLR_1 ZN SECONDARYSCHOOL CLASSROOM ELEC EQUIP,SCHOOLSECONDARY BLDG_EQUIP_SCH,CORNER_CLASS_1_POD_1_ZN_1_FLR_1 ZN,99.00,37.3,989.968,10.000,26.543,0.000,0.500,0.000,0.500,General,247.492,940.469
 ElectricEquipment Internal Gains Nominal, CORNER_CLASS_1_POD_1_ZN_1_FLR_2 ZN SECONDARYSCHOOL CLASSROOM ELEC EQUIP,SCHOOLSECONDARY BLDG_EQUIP_SCH,CORNER_CLASS_1_POD_1_ZN_1_FLR_2 ZN,99.00,37.3,989.968,10.000,26.543,0.000,0.500,0.000,0.500,General,247.492,940.469
 ElectricEquipment Internal Gains Nominal, CORNER_CLASS_1_POD_2_ZN_1_FLR_1 ZN SECONDARYSCHOOL CLASSROOM ELEC EQUIP,SCHOOLSECONDARY BLDG_EQUIP_SCH,CORNER_CLASS_1_POD_2_ZN_1_FLR_1 ZN,99.00,37.3,989.968,10.000,26.543,0.000,0.500,0.000,0.500,General,247.492,940.469
 ElectricEquipment Internal Gains Nominal, CORNER_CLASS_1_POD_2_ZN_1_FLR_2 ZN SECONDARYSCHOOL CLASSROOM ELEC EQUIP,SCHOOLSECONDARY BLDG_EQUIP_SCH,CORNER_CLASS_1_POD_2_ZN_1_FLR_2 ZN,99.00,37.3,989.968,10.000,26.543,0.000,0.500,0.000,0.500,General,247.492,940.469
 ElectricEquipment Internal Gains Nominal, CORNER_CLASS_1_POD_3_ZN_1_FLR_1 ZN SECONDARYSCHOOL CLASSROOM ELEC EQUIP,SCHOOLSECONDARY BLDG_EQUIP_SCH,CORNER_CLASS_1_POD_3_ZN_1_FLR_1 ZN,99.00,37.3,989.968,10.000,26.543,0.000,0.500,0.000,0.500,General,247.492,940.469
 ElectricEquipment Internal Gains Nominal, CORNER_CLASS_1_POD_3_ZN_1_FLR_2 ZN SECONDARYSCHOOL CLASSROOM ELEC EQUIP,SCHOOLSECONDARY BLDG_EQUIP_SCH,CORNER_CLASS_1_POD_3_ZN_1_FLR_2 ZN,99.00,37.3,989.968,10.000,26.543,0.000,0.500,0.000,0.500,General,247.492,940.469
 ElectricEquipment Internal Gains Nominal, CORNER_CLASS_2_POD_1_ZN_1_FLR_1 ZN SECONDARYSCHOOL CLASSROOM ELEC EQUIP,SCHOOLSECONDARY BLDG_EQUIP_SCH,CORNER_CLASS_2_POD_1_ZN_1_FLR_1 ZN,99.00,37.3,989.968,10.000,26.543,0.000,0.500,0.000,0.500,General,247.492,940.469
 ElectricEquipment Internal Gains Nominal, CORNER_CLASS_2_POD_1_ZN_1_FLR_2 ZN SECONDARYSCHOOL CLASSROOM ELEC EQUIP,SCHOOLSECONDARY BLDG_EQUIP_SCH,CORNER_CLASS_2_POD_1_ZN_1_FLR_2 ZN,99.00,37.3,989.968,10.000,26.543,0.000,0.500,0.000,0.500,General,247.492,940.469
 ElectricEquipment Internal Gains Nominal, CORNER_CLASS_2_POD_2_ZN_1_FLR_1 ZN SECONDARYSCHOOL CLASSROOM ELEC EQUIP,SCHOOLSECONDARY BLDG_EQUIP_SCH,CORNER_CLASS_2_POD_2_ZN_1_FLR_1 ZN,99.00,37.3,989.968,10.000,26.543,0.000,0.500,0.000,0.500,General,247.492,940.469
 ElectricEquipment Internal Gains Nominal, CORNER_CLASS_2_POD_2_ZN_1_FLR_2 ZN SECONDARYSCHOOL CLASSROOM ELEC EQUIP,SCHOOLSECONDARY BLDG_EQUIP_SCH,CORNER_CLASS_2_POD_2_ZN_1_FLR_2 ZN,99.00,37.3,989.968,10.000,26.543,0.000,0.500,0.000,0.500,General,247.492,940.469
 ElectricEquipment Internal Gains Nominal, CORNER_CLASS_2_POD_3_ZN_1_FLR_1 ZN SECONDARYSCHOOL CLASSROOM ELEC EQUIP,SCHOOLSECONDARY BLDG_EQUIP_SCH,CORNER_CLASS_2_POD_3_ZN_1_FLR_1 ZN,99.00,37.3,989.968,10.000,26.543,0.000,0.500,0.000,0.500,General,247.492,940.469
 ElectricEquipment Internal Gains Nominal, CORNER_CLASS_2_POD_3_ZN_1_FLR_2 ZN SECONDARYSCHOOL CLASSROOM ELEC EQUIP,SCHOOLSECONDARY BLDG_EQUIP_SCH,CORNER_CLASS_2_POD_3_ZN_1_FLR_2 ZN,99.00,37.3,989.968,10.000,26.543,0.000,0.500,0.000,0.500,General,247.492,940.469
 ElectricEquipment Internal Gains Nominal, MULT_CLASS_1_POD_1_ZN_1_FLR_1 ZN SECONDARYSCHOOL CLASSROOM ELEC EQUIP,SCHOOLSECONDARY BLDG_EQUIP_SCH,MULT_CLASS_1_POD_1_ZN_1_FLR_1 ZN,477.00,179.7,4769.844,10.000,26.543,0.000,0.500,0.000,0.500,General,1192.461,4531.352
 ElectricEquipment Internal Gains Nominal, MULT_CLASS_1_POD_1_ZN_1_FLR_2 ZN SECONDARYSCHOOL CLASSROOM ELEC EQUIP,SCHOOLSECONDARY BLDG_EQUIP_SCH,MULT_CLASS_1_POD_1_ZN_1_FLR_2 ZN,477.00,179.7,4769.844,10.000,26.543,0.000,0.500,0.000,0.500,General,1192.461,4531.352
 ElectricEquipment Internal Gains Nominal, MULT_CLASS_1_POD_2_ZN_1_FLR_1 ZN SECONDARYSCHOOL CLASSROOM ELEC EQUIP,SCHOOLSECONDARY BLDG_EQUIP_SCH,MULT_CLASS_1_POD_2_ZN_1_FLR_1 ZN,477.00,179.7,4769.844,10.000,26.543,0.000,0.500,0.000,0.500,General,1192.461,4531.352
 ElectricEquipment Internal Gains Nominal, MULT_CLASS_1_POD_2_ZN_1_FLR_2 ZN SECONDARYSCHOOL CLASSROOM ELEC EQUIP,SCHOOLSECONDARY BLDG_EQUIP_SCH,MULT_CLASS_1_POD_2_ZN_1_FLR_2 ZN,477.00,179.7,4769.844,10.000,26.543,0.000,0.500,0.000,0.500,General,1192.461,4531.352
 ElectricEquipment Internal Gains Nominal, MULT_CLASS_1_POD_3_ZN_1_FLR_1 ZN SECONDARYSCHOOL CLASSROOM ELEC EQUIP,SCHOOLSECONDARY BLDG_EQUIP_SCH,MULT_CLASS_1_POD_3_ZN_1_FLR_1 ZN,477.00,179.7,4769.844,10.000,26.543,0.000,0.500,0.000,0.500,General,1192.461,4531.352
 ElectricEquipment Internal Gains Nominal, MULT_CLASS_2_POD_1_ZN_1_FLR_1 ZN SECONDARYSCHOOL CLASSROOM ELEC EQUIP,SCHOOLSECONDARY BLDG_EQUIP_SCH,MULT_CLASS_2_POD_1_ZN_1_FLR_1 ZN,477.00,179.7,4769.844,10.000,26.543,0.000,0.500,0.000,0.500,General,1192.461,4531.352
 ElectricEquipment Internal Gains Nominal, MULT_CLASS_2_POD_1_ZN_1_FLR_2 ZN SECONDARYSCHOOL CLASSROOM ELEC EQUIP,SCHOOLSECONDARY BLDG_EQUIP_SCH,MULT_CLASS_2_POD_1_ZN_1_FLR_2 ZN,477.00,179.7,4769.844,10.000,26.543,0.000,0.500,0.000,0.500,General,1192.461,4531.352
 ElectricEquipment Internal Gains Nominal, MULT_CLASS_2_POD_2_ZN_1_FLR_1 ZN SECONDARYSCHOOL CLASSROOM ELEC EQUIP,SCHOOLSECONDARY BLDG_EQUIP_SCH,MULT_CLASS_2_POD_2_ZN_1_FLR_1 ZN,477.00,179.7,4769.844,10.000,26.543,0.000,0.500,0.000,0.500,General,1192.461,4531.352
 ElectricEquipment Internal Gains Nominal, MULT_CLASS_2_POD_2_ZN_1_FLR_2 ZN SECONDARYSCHOOL CLASSROOM ELEC EQUIP,SCHOOLSECONDARY BLDG_EQUIP_SCH,MULT_CLASS_2_POD_2_ZN_1_FLR_2 ZN,477.00,179.7,4769.844,10.000,26.543,0.000,0.500,0.000,0.500,General,1192.461,4531.352
 ElectricEquipment Internal Gains Nominal, MULT_CLASS_2_POD_3_ZN_1_FLR_1 ZN SECONDARYSCHOOL CLASSROOM ELEC EQUIP,SCHOOLSECONDARY BLDG_EQUIP_SCH,MULT_CLASS_2_POD_3_ZN_1_FLR_1 ZN,477.00,179.7,4769.844,10.000,26.543,0.000,0.500,0.000,0.500,General,1192.461,4531.352
 ElectricEquipment Internal Gains Nominal, MULT_CLASS_1_POD_3_ZN_1_FLR_2 ZN SECONDARYSCHOOL COMPUTERROOM ELEC EQUIP,SCHOOLSECONDARY BLDG_EQUIP_SCH,MULT_CLASS_1_POD_3_ZN_1_FLR_2 ZN,477.00,179.7,9539.688,19.999,53.086,0.000,0.500,0.000,0.500,General,2384.922,9062.703
 ElectricEquipment Internal Gains Nominal, MULT_CLASS_2_POD_3_ZN_1_FLR_2 ZN SECONDARYSCHOOL COMPUTERROOM ELEC EQUIP,SCHOOLSECONDARY BLDG_EQUIP_SCH,MULT_CLASS_2_POD_3_ZN_1_FLR_2 ZN,477.00,179.7,9539.688,19.999,53.086,0.000,0.500,0.000,0.500,General,2384.922,9062.703
 ElectricEquipment Internal Gains Nominal, CORRIDOR_POD_1_ZN_1_FLR_1 ZN SECONDARYSCHOOL CORRIDOR ELEC EQUIP,SCHOOLSECONDARY BLDG_EQUIP_SCH,CORRIDOR_POD_1_ZN_1_FLR_1 ZN,320.00,0.0,1274.447,3.983,N/A,0.000,0.500,0.000,0.500,General,318.612,1210.725
 ElectricEquipment Internal Gains Nominal, CORRIDOR_POD_1_ZN_1_FLR_2 ZN SECONDARYSCHOOL CORRIDOR ELEC EQUIP,SCHOOLSECONDARY BLDG_EQUIP_SCH,CORRIDOR_POD_1_ZN_1_FLR_2 ZN,320.00,0.0,1274.447,3.983,N/A,0.000,0.500,0.000,0.500,General,318.612,1210.725
 ElectricEquipment Internal Gains Nominal, CORRIDOR_POD_2_ZN_1_FLR_1 ZN SECONDARYSCHOOL CORRIDOR ELEC EQUIP,SCHOOLSECONDARY BLDG_EQUIP_SCH,CORRIDOR_POD_2_ZN_1_FLR_1 ZN,320.00,0.0,1274.447,3.983,N/A,0.000,0.500,0.000,0.500,General,318.612,1210.725
 ElectricEquipment Internal Gains Nominal, CORRIDOR_POD_2_ZN_1_FLR_2 ZN SECONDARYSCHOOL CORRIDOR ELEC EQUIP,SCHOOLSECONDARY BLDG_EQUIP_SCH,CORRIDOR_POD_2_ZN_1_FLR_2 ZN,320.00,0.0,1274.447,3.983,N/A,0.000,0.500,0.000,0.500,General,318.612,1210.725
 ElectricEquipment Internal Gains Nominal, CORRIDOR_POD_3_ZN_1_FLR_1 ZN SECONDARYSCHOOL CORRIDOR ELEC EQUIP,SCHOOLSECONDARY BLDG_EQUIP_SCH,CORRIDOR_POD_3_ZN_1_FLR_1 ZN,320.00,0.0,1274.447,3.983,N/A,0.000,0.500,0.000,0.500,General,318.612,1210.725
 ElectricEquipment Internal Gains Nominal, CORRIDOR_POD_3_ZN_1_FLR_2 ZN SECONDARYSCHOOL CORRIDOR ELEC EQUIP,SCHOOLSECONDARY BLDG_EQUIP_SCH,CORRIDOR_POD_3_ZN_1_FLR_2 ZN,320.00,0.0,1274.447,3.983,N/A,0.000,0.500,0.000,0.500,General,318.612,1210.725
 ElectricEquipment Internal Gains Nominal, MAIN_CORRIDOR_ZN_1_FLR_1 ZN SECONDARYSCHOOL CORRIDOR ELEC EQUIP,SCHOOLSECONDARY BLDG_EQUIP_SCH,MAIN_CORRIDOR_ZN_1_FLR_1 ZN,1140.00,0.0,4540.217,3.983,N/A,0.000,0.500,0.000,0.500,General,1135.054,4313.207
 ElectricEquipment Internal Gains Nominal, MAIN_CORRIDOR_ZN_1_FLR_2 ZN SECONDARYSCHOOL CORRIDOR ELEC EQUIP,SCHOOLSECONDARY BLDG_EQUIP_SCH,MAIN_CORRIDOR_ZN_1_FLR_2 ZN,1140.00,0.0,4540.217,3.983,N/A,0.000,0.500,0.000,0.500,General,1135.054,4313.207
 ElectricEquipment Internal Gains Nominal, AUX_GYM_ZN_1_FLR_1 ZN SECONDARYSCHOOL GYM ELEC EQUIP,SCHOOLSECONDARY BLDG_EQUIP_SCH,AUX_GYM_ZN_1_FLR_1 ZN,1248.00,403.0,6179.346,4.951,15.333,0.000,0.500,0.000,0.500,General,1544.836,5870.378
 ElectricEquipment Internal Gains Nominal, GYM_ZN_1_FLR_1 ZN SECONDARYSCHOOL GYM ELEC EQUIP,SCHOOLSECONDARY BLDG_EQUIP_SCH,GYM_ZN_1_FLR_1 ZN,1976.00,638.1,9783.964,4.951,15.333,0.000,0.500,0.000,0.500,General,2445.991,9294.766
 ElectricEquipment Internal Gains Nominal, KITCHEN_ZN_1_FLR_1 ZN KITCHEN_REACH-IN-FREEZER,SCHOOLSECONDARY ALWAYS_ON,KITCHEN_ZN_1_FLR_1 ZN,216.00,35.4,1032.000,4.778,29.144,0.000,0.250,0.000,0.750,General,1032.000,1032.000
 ElectricEquipment Internal Gains Nominal, KITCHEN_ZN_1_FLR_1 ZN KITCHEN_REACH-IN-REFRIGERATOR,SCHOOLSECONDARY ALWAYS_ON,KITCHEN_ZN_1_FLR_1 ZN,216.00,35.4,852.000,3.944,24.061,0.000,0.250,0.000,0.750,General,852.000,852.000
 ElectricEquipment Internal Gains Nominal, KITCHEN_ZN_1_FLR_1 ZN SECONDARYSCHOOL KITCHEN ELEC EQUIP,SCHOOLSECONDARY KITCHEN_ELEC_EQUIP_SCH,KITCHEN_ZN_1_FLR_1 ZN,216.00,35.4,48011.346,222.275,1355.877,0.250,0.300,0.200,0.250,General,4801.135,12002.837
 ElectricEquipment Internal Gains Nominal, LIBRARY_MEDIA_CENTER_ZN_1_FLR_2 ZN SECONDARYSCHOOL LIBRARY ELEC EQUIP,SCHOOLSECONDARY BLDG_EQUIP_SCH,LIBRARY_MEDIA_CENTER_ZN_1_FLR_2 ZN,840.00,90.4,8408.767,10.010,93.000,0.000,0.500,0.000,0.500,General,2102.192,7988.328
 ElectricEquipment Internal Gains Nominal, LOBBY_ZN_1_FLR_1 ZN SECONDARYSCHOOL LOBBY ELEC EQUIP,SCHOOLSECONDARY BLDG_EQUIP_SCH,LOBBY_ZN_1_FLR_1 ZN,210.00,0.0,836.356,3.983,N/A,0.000,0.500,0.000,0.500,General,209.089,794.538
 ElectricEquipment Internal Gains Nominal, LOBBY_ZN_1_FLR_2 ZN SECONDARYSCHOOL LOBBY ELEC EQUIP,SCHOOLSECONDARY BLDG_EQUIP_SCH,LOBBY_ZN_1_FLR_2 ZN,210.00,0.0,836.356,3.983,N/A,0.000,0.500,0.000,0.500,General,209.089,794.538
 ElectricEquipment Internal Gains Nominal, MECH_ZN_1_FLR_1 ZN SECONDARYSCHOOL MECHANICAL ELEC EQUIP,SCHOOLSECONDARY BLDG_EQUIP_SCH,MECH_ZN_1_FLR_1 ZN,342.00,0.0,1362.065,3.983,N/A,0.000,0.500,0.000,0.500,General,340.516,1293.962
 ElectricEquipment Internal Gains Nominal, MECH_ZN_1_FLR_2 ZN SECONDARYSCHOOL MECHANICAL ELEC EQUIP,SCHOOLSECONDARY BLDG_EQUIP_SCH,MECH_ZN_1_FLR_2 ZN,342.00,0.0,1362.065,3.983,N/A,0.000,0.500,0.000,0.500,General,340.516,1293.962
 ElectricEquipment Internal Gains Nominal, OFFICES_ZN_1_FLR_1 ZN SECONDARYSCHOOL OFFICE ELEC EQUIP,SCHOOLSECONDARY BLDG_EQUIP_SCH,OFFICES_ZN_1_FLR_1 ZN,532.00,28.6,5726.400,10.764,200.000,0.000,0.500,0.000,0.500,General,1431.600,5440.080
 ElectricEquipment Internal Gains Nominal, OFFICES_ZN_1_FLR_2 ZN SECONDARYSCHOOL OFFICE ELEC EQUIP,SCHOOLSECONDARY BLDG_EQUIP_SCH,OFFICES_ZN_1_FLR_2 ZN,532.00,28.6,5726.400,10.764,200.000,0.000,0.500,0.000,0.500,General,1431.600,5440.080
 ElectricEquipment Internal Gains Nominal, BATHROOMS_ZN_1_FLR_1 ZN SECONDARYSCHOOL RESTROOM ELEC EQUIP,SCHOOLSECONDARY BLDG_EQUIP_SCH,BATHROOMS_ZN_1_FLR_1 ZN,210.00,0.0,836.356,3.983,N/A,0.000,0.500,0.000,0.500,General,209.089,794.538
 ElectricEquipment Internal Gains Nominal, BATHROOMS_ZN_1_FLR_2 ZN SECONDARYSCHOOL RESTROOM ELEC EQUIP,SCHOOLSECONDARY BLDG_EQUIP_SCH,BATHROOMS_ZN_1_FLR_2 ZN,210.00,0.0,836.356,3.983,N/A,0.000,0.500,0.000,0.500,General,209.089,794.538
! <GasEquipment Internal Gains Nominal>,Name,Schedule Name,Zone Name,Zone Floor Area {m2},# Zone Occupants,Equipment Level {W},Equipment/Floor Area {W/m2},Equipment per person {W/person},Fraction Latent,Fraction Radiant,Fraction Lost,Fraction Convected,End-Use SubCategory,Nominal Minimum Equipment Level {W},Nominal Maximum Equipment Level {W}
 GasEquipment Internal Gains Nominal, KITCHEN_ZN_1_FLR_1 ZN SECONDARYSCHOOL KITCHEN GAS EQUIP,SCHOOLSECONDARY KITCHEN_GAS_EQUIP_SCH,KITCHEN_ZN_1_FLR_1 ZN,216.00,35.4,362568.471,1678.558,10239.207,0.100,0.200,0.700,0.000,General,7251.369,72513.694
! <Shadowing/Sun Position Calculations Annual Simulations>, Shading Calculation Method, Shading Calculation Update Frequency Method, Shading Calculation Update Frequency {days}, Maximum Figures in Shadow Overlap Calculations {}, Polygon Clipping Algorithm, Pixel Counting Resolution, Sky Diffuse Modeling Algorithm, Output External Shading Calculation Results, Disable Self-Shading Within Shading Zone Groups, Disable Self-Shading From Shading Zone Groups to Other Zones
Shadowing/Sun Position Calculations Annual Simulations,PolygonClipping,Periodic,30,15000,SutherlandHodgman,512,SimpleSkyDiffuseModeling,No,No,No
! <Zone/Window Adjacency Daylighting Counts>, Zone Name, Number of Exterior Windows, Number of Exterior Windows in Adjacent Zones
Zone/Window Adjacency Daylighting Counts, AUDITORIUM_ZN_1_FLR_1 ZN,1,0
Zone/Window Adjacency Daylighting Counts, AUX_GYM_ZN_1_FLR_1 ZN,37,0
Zone/Window Adjacency Daylighting Counts, BATHROOMS_ZN_1_FLR_1 ZN,2,0
Zone/Window Adjacency Daylighting Counts, BATHROOMS_ZN_1_FLR_2 ZN,2,0
Zone/Window Adjacency Daylighting Counts, CAFETERIA_ZN_1_FLR_1 ZN,3,0
Zone/Window Adjacency Daylighting Counts, CORNER_CLASS_1_POD_1_ZN_1_FLR_1 ZN,3,0
Zone/Window Adjacency Daylighting Counts, CORNER_CLASS_1_POD_1_ZN_1_FLR_2 ZN,2,0
Zone/Window Adjacency Daylighting Counts, CORNER_CLASS_1_POD_2_ZN_1_FLR_1 ZN,3,0
Zone/Window Adjacency Daylighting Counts, CORNER_CLASS_1_POD_2_ZN_1_FLR_2 ZN,2,0
Zone/Window Adjacency Daylighting Counts, CORNER_CLASS_1_POD_3_ZN_1_FLR_1 ZN,3,0
Zone/Window Adjacency Daylighting Counts, CORNER_CLASS_1_POD_3_ZN_1_FLR_2 ZN,2,0
Zone/Window Adjacency Daylighting Counts, CORNER_CLASS_2_POD_1_ZN_1_FLR_1 ZN,3,0
Zone/Window Adjacency Daylighting Counts, CORNER_CLASS_2_POD_1_ZN_1_FLR_2 ZN,2,0
Zone/Window Adjacency Daylighting Counts, CORNER_CLASS_2_POD_2_ZN_1_FLR_1 ZN,3,0
Zone/Window Adjacency Daylighting Counts, CORNER_CLASS_2_POD_2_ZN_1_FLR_2 ZN,2,0
Zone/Window Adjacency Daylighting Counts, CORNER_CLASS_2_POD_3_ZN_1_FLR_1 ZN,3,0
Zone/Window Adjacency Daylighting Counts, CORNER_CLASS_2_POD_3_ZN_1_FLR_2 ZN,2,0
Zone/Window Adjacency Daylighting Counts, GYM_ZN_1_FLR_1 ZN,54,0
Zone/Window Adjacency Daylighting Counts, LIBRARY_MEDIA_CENTER_ZN_1_FLR_2 ZN,2,0
Zone/Window Adjacency Daylighting Counts, LOBBY_ZN_1_FLR_1 ZN,2,0
Zone/Window Adjacency Daylighting Counts, LOBBY_ZN_1_FLR_2 ZN,1,0
Zone/Window Adjacency Daylighting Counts, MAIN_CORRIDOR_ZN_1_FLR_1 ZN,4,0
Zone/Window Adjacency Daylighting Counts, MAIN_CORRIDOR_ZN_1_FLR_2 ZN,2,0
Zone/Window Adjacency Daylighting Counts, MULT_CLASS_1_POD_1_ZN_1_FLR_1 ZN,3,0
Zone/Window Adjacency Daylighting Counts, MULT_CLASS_1_POD_1_ZN_1_FLR_2 ZN,1,0
Zone/Window Adjacency Daylighting Counts, MULT_CLASS_1_POD_2_ZN_1_FLR_1 ZN,3,0
Zone/Window Adjacency Daylighting Counts, MULT_CLASS_1_POD_2_ZN_1_FLR_2 ZN,1,0
Zone/Window Adjacency Daylighting Counts, MULT_CLASS_1_POD_3_ZN_1_FLR_1 ZN,3,0
Zone/Window Adjacency Daylighting Counts, MULT_CLASS_1_POD_3_ZN_1_FLR_2 ZN,1,0
Zone/Window Adjacency Daylighting Counts, MULT_CLASS_2_POD_1_ZN_1_FLR_1 ZN,3,0
Zone/Window Adjacency Daylighting Counts, MULT_CLASS_2_POD_1_ZN_1_FLR_2 ZN,1,0
Zone/Window Adjacency Daylighting Counts, MULT_CLASS_2_POD_2_ZN_1_FLR_1 ZN,3,0
Zone/Window Adjacency Daylighting Counts, MULT_CLASS_2_POD_2_ZN_1_FLR_2 ZN,1,0
Zone/Window Adjacency Daylighting Counts, MULT_CLASS_2_POD_3_ZN_1_FLR_1 ZN,3,0
Zone/Window Adjacency Daylighting Counts, MULT_CLASS_2_POD_3_ZN_1_FLR_2 ZN,1,0
Zone/Window Adjacency Daylighting Counts, OFFICES_ZN_1_FLR_1 ZN,4,0
Zone/Window Adjacency Daylighting Counts, OFFICES_ZN_1_FLR_2 ZN,2,0
! <Zone/Window Adjacency Daylighting Matrix>, Zone Name, Number of Adjacent Zones with Windows,Adjacent Zone Names - 1st 100 (max)
Zone/Window Adjacency Daylighting Matrix, AUDITORIUM_ZN_1_FLR_1 ZN,0
Zone/Window Adjacency Daylighting Matrix, AUX_GYM_ZN_1_FLR_1 ZN,0
Zone/Window Adjacency Daylighting Matrix, BATHROOMS_ZN_1_FLR_1 ZN,0
Zone/Window Adjacency Daylighting Matrix, BATHROOMS_ZN_1_FLR_2 ZN,0
Zone/Window Adjacency Daylighting Matrix, CAFETERIA_ZN_1_FLR_1 ZN,0
Zone/Window Adjacency Daylighting Matrix, CORNER_CLASS_1_POD_1_ZN_1_FLR_1 ZN,0
Zone/Window Adjacency Daylighting Matrix, CORNER_CLASS_1_POD_1_ZN_1_FLR_2 ZN,0
Zone/Window Adjacency Daylighting Matrix, CORNER_CLASS_1_POD_2_ZN_1_FLR_1 ZN,0
Zone/Window Adjacency Daylighting Matrix, CORNER_CLASS_1_POD_2_ZN_1_FLR_2 ZN,0
Zone/Window Adjacency Daylighting Matrix, CORNER_CLASS_1_POD_3_ZN_1_FLR_1 ZN,0
Zone/Window Adjacency Daylighting Matrix, CORNER_CLASS_1_POD_3_ZN_1_FLR_2 ZN,0
Zone/Window Adjacency Daylighting Matrix, CORNER_CLASS_2_POD_1_ZN_1_FLR_1 ZN,0
Zone/Window Adjacency Daylighting Matrix, CORNER_CLASS_2_POD_1_ZN_1_FLR_2 ZN,0
Zone/Window Adjacency Daylighting Matrix, CORNER_CLASS_2_POD_2_ZN_1_FLR_1 ZN,0
Zone/Window Adjacency Daylighting Matrix, CORNER_CLASS_2_POD_2_ZN_1_FLR_2 ZN,0
Zone/Window Adjacency Daylighting Matrix, CORNER_CLASS_2_POD_3_ZN_1_FLR_1 ZN,0
Zone/Window Adjacency Daylighting Matrix, CORNER_CLASS_2_POD_3_ZN_1_FLR_2 ZN,0
Zone/Window Adjacency Daylighting Matrix, GYM_ZN_1_FLR_1 ZN,0
Zone/Window Adjacency Daylighting Matrix, LIBRARY_MEDIA_CENTER_ZN_1_FLR_2 ZN,0
Zone/Window Adjacency Daylighting Matrix, LOBBY_ZN_1_FLR_1 ZN,0
Zone/Window Adjacency Daylighting Matrix, LOBBY_ZN_1_FLR_2 ZN,0
Zone/Window Adjacency Daylighting Matrix, MAIN_CORRIDOR_ZN_1_FLR_1 ZN,0
Zone/Window Adjacency Daylighting Matrix, MAIN_CORRIDOR_ZN_1_FLR_2 ZN,0
Zone/Window Adjacency Daylighting Matrix, MULT_CLASS_1_POD_1_ZN_1_FLR_1 ZN,0
Zone/Window Adjacency Daylighting Matrix, MULT_CLASS_1_POD_1_ZN_1_FLR_2 ZN,0
Zone/Window Adjacency Daylighting Matrix, MULT_CLASS_1_POD_2_ZN_1_FLR_1 ZN,0
Zone/Window Adjacency Daylighting Matrix, MULT_CLASS_1_POD_2_ZN_1_FLR_2 ZN,0
Zone/Window Adjacency Daylighting Matrix, MULT_CLASS_1_POD_3_ZN_1_FLR_1 ZN,0
Zone/Window Adjacency Daylighting Matrix, MULT_CLASS_1_POD_3_ZN_1_FLR_2 ZN,0
Zone/Window Adjacency Daylighting Matrix, MULT_CLASS_2_POD_1_ZN_1_FLR_1 ZN,0
Zone/Window Adjacency Daylighting Matrix, MULT_CLASS_2_POD_1_ZN_1_FLR_2 ZN,0
Zone/Window Adjacency Daylighting Matrix, MULT_CLASS_2_POD_2_ZN_1_FLR_1 ZN,0
Zone/Window Adjacency Daylighting Matrix, MULT_CLASS_2_POD_2_ZN_1_FLR_2 ZN,0
Zone/Window Adjacency Daylighting Matrix, MULT_CLASS_2_POD_3_ZN_1_FLR_1 ZN,0
Zone/Window Adjacency Daylighting Matrix, MULT_CLASS_2_POD_3_ZN_1_FLR_2 ZN,0
Zone/Window Adjacency Daylighting Matrix, OFFICES_ZN_1_FLR_1 ZN,0
Zone/Window Adjacency Daylighting Matrix, OFFICES_ZN_1_FLR_2 ZN,0
! <#Detailed Refrigeration Systems>,Number of Detailed Refrigeration Systems
! <Detailed Refrigeration System>,Refrigeration System Name,Refrigerant Used, # Refrigerated Cases Connected, # WalkInCoolers Connected, #Air Chillers Connected, # Secondary Loops Served, # Cascade Condensers Served, # Mechanical Subcoolers Served, # Compressors Connected, # Compression Stages, Intercooler Type, Intercooler Effectiveness, # Subcoolers Connected, Minimum Condensing Temperature (C)
!  <Refrigeration Compressor>,Compressor Number,Compressor Name,Nominal Capacity (W)
!  <Refrigeration Case>,Refrigeration Case Number, Refrigeration Case Name,Zone Name,Zone Node #,Zone Node Name,Capacity (W/m),LHR,Temperature (C),Length (m),Fan (W/m),Installed Lighting (W/m),Anti-Sweat (W/m),Defrost (W/m)
!  <Refrigeration Walk In Cooler>, Walk In Number, Walk In Name,Capacity (W),Temperature (C),Coil Fan (W), Circulating Fan (W), Lighting (W),Heaters (W),Defrost (W), # Zones
!      <Walk-In Surfaces Facing Zone>, ZoneName, Wall/Ceiling Area (m2), UValue (W/m2-C), AreaStockDoors (m2), HeightStockDoors, UValueStockDoors (W/m2-C), AreaGlassDoors (m2), HeightGlassDoors (m),  UValueGlassDoors (W/m2-C)
!  <Refrigeration Condenser:Air-Cooled>,Condenser Number,Condenser Name,Rated Condensing Temperature (C),Rated Capacity (W), Rated Fan Power (W)
#Detailed Refrigeration Systems,1
 Detailed Refrigeration System,REFRSYSTEM - SECONDARY SCHOOL,R404A,1,1,0,0,0,0,20,1,0,0.80,0,21.0
   Refrigeration Case,1,CASE SECONDARY SCHOOL,KITCHEN_ZN_1_FLR_1 ZN,350,KITCHEN_ZN_1_FLR_1 ZN ZONE AIR NODE,734.0,8.00E-002,2.0,7.3,55.0,33.0,0.0,0.0
   Refrigeration Walk In Cooler,1,WALK-IN SECONDARY SCHOOL,5372.9,-23.0,500.0,0.0,241.6,0.0,3001.2,1
      Walk-In Surfaces Facing Zone, KITCHEN_ZN_1_FLR_1 ZN,43.4,0.2350,2.00,2.00,0.3785,0.00,1.50,1.1360
   Refrigeration Compressor,1,REFRIGERATION COMPRESSOR 1,18145
   Refrigeration Compressor,2,REFRIGERATION COMPRESSOR 2,18145
   Refrigeration Compressor,3,REFRIGERATION COMPRESSOR 3,18145
   Refrigeration Compressor,4,REFRIGERATION COMPRESSOR 4,18145
   Refrigeration Compressor,5,REFRIGERATION COMPRESSOR 5,18145
   Refrigeration Compressor,6,REFRIGERATION COMPRESSOR 6,18145
   Refrigeration Compressor,7,REFRIGERATION COMPRESSOR 7,18145
   Refrigeration Compressor,8,REFRIGERATION COMPRESSOR 8,18145
   Refrigeration Compressor,9,REFRIGERATION COMPRESSOR 9,18145
   Refrigeration Compressor,10,REFRIGERATION COMPRESSOR 10,18145
   Refrigeration Compressor,11,REFRIGERATION COMPRESSOR 11,18145
   Refrigeration Compressor,12,REFRIGERATION COMPRESSOR 12,18145
   Refrigeration Compressor,13,REFRIGERATION COMPRESSOR 13,18145
   Refrigeration Compressor,14,REFRIGERATION COMPRESSOR 14,18145
   Refrigeration Compressor,15,REFRIGERATION COMPRESSOR 15,18145
   Refrigeration Compressor,16,REFRIGERATION COMPRESSOR 16,18145
   Refrigeration Compressor,17,REFRIGERATION COMPRESSOR 17,18145
   Refrigeration Compressor,18,REFRIGERATION COMPRESSOR 18,18145
   Refrigeration Compressor,19,REFRIGERATION COMPRESSOR 19,18145
   Refrigeration Compressor,20,REFRIGERATION COMPRESSOR 20,18145
   Refrigeration Condenser:Air-Cooled,1,REFRIGERATION CONDENSER AIR COOLED 1,51.7,33266.2,1198.1
! <Water Heater Information>,Type,Name,Volume {m3},Maximum Capacity {W},Standard Rated Recovery Efficiency, Standard Rated Energy Factor
! <ZoneInfiltration Airflow Stats Nominal>,Name,Schedule Name,Zone Name, Zone Floor Area {m2}, # Zone Occupants,Design Volume Flow Rate {m3/s},Volume Flow Rate/Floor Area {m3/s-m2},Volume Flow Rate/Exterior Surface Area {m3/s-m2},ACH - Air Changes per Hour,Equation A - Constant Term Coefficient {},Equation B - Temperature Term Coefficient {1/C},Equation C - Velocity Term Coefficient {s/m}, Equation D - Velocity Squared Term Coefficient {s2/m2}
 ZoneInfiltration Airflow Stats Nominal, AUDITORIUM_ZN_1_FLR_1 INFILTRATION,SCHOOLSECONDARY INFIL_SCH_PNNL,AUDITORIUM_ZN_1_FLR_1 ZN,988.00,1595.2,0.174,1.760E-004,1.340E-004,7.922E-002,0.000,0.000,0.224,0.000
 ZoneInfiltration Airflow Stats Nominal, AUX_GYM_ZN_1_FLR_1 INFILTRATION,SCHOOLSECONDARY INFIL_SCH_PNNL,AUX_GYM_ZN_1_FLR_1 ZN,1248.00,403.0,0.348,2.789E-004,1.866E-004,0.126,0.000,0.000,0.224,0.000
 ZoneInfiltration Airflow Stats Nominal, BATHROOMS_ZN_1_FLR_1 INFILTRATION,SCHOOLSECONDARY INFIL_SCH_PNNL,BATHROOMS_ZN_1_FLR_1 ZN,210.00,0.0,4.101E-002,1.953E-004,5.696E-004,0.176,0.000,0.000,0.224,0.000
 ZoneInfiltration Airflow Stats Nominal, BATHROOMS_ZN_1_FLR_2 INFILTRATION,SCHOOLSECONDARY INFIL_SCH_PNNL,BATHROOMS_ZN_1_FLR_2 ZN,210.00,0.0,4.101E-002,1.953E-004,1.454E-004,0.176,0.000,0.000,0.224,0.000
 ZoneInfiltration Airflow Stats Nominal, CAFETERIA_ZN_1_FLR_1 INFILTRATION,SCHOOLSECONDARY INFIL_SCH_PNNL,CAFETERIA_ZN_1_FLR_1 ZN,624.00,671.7,0.115,1.843E-004,5.696E-004,0.166,0.000,0.000,0.224,0.000
 ZoneInfiltration Airflow Stats Nominal, CORNER_CLASS_1_POD_1_ZN_1_FLR_1 INFILTRATION,SCHOOLSECONDARY INFIL_SCH_PNNL,CORNER_CLASS_1_POD_1_ZN_1_FLR_1 ZN,99.00,37.3,4.668E-002,4.715E-004,5.696E-004,0.424,0.000,0.000,0.224,0.000
 ZoneInfiltration Airflow Stats Nominal, CORNER_CLASS_1_POD_1_ZN_1_FLR_2 INFILTRATION,SCHOOLSECONDARY INFIL_SCH_PNNL,CORNER_CLASS_1_POD_1_ZN_1_FLR_2 ZN,99.00,37.3,4.557E-002,4.603E-004,2.546E-004,0.414,0.000,0.000,0.224,0.000
 ZoneInfiltration Airflow Stats Nominal, CORNER_CLASS_1_POD_2_ZN_1_FLR_1 INFILTRATION,SCHOOLSECONDARY INFIL_SCH_PNNL,CORNER_CLASS_1_POD_2_ZN_1_FLR_1 ZN,99.00,37.3,4.668E-002,4.715E-004,5.696E-004,0.424,0.000,0.000,0.224,0.000
 ZoneInfiltration Airflow Stats Nominal, CORNER_CLASS_1_POD_2_ZN_1_FLR_2 INFILTRATION,SCHOOLSECONDARY INFIL_SCH_PNNL,CORNER_CLASS_1_POD_2_ZN_1_FLR_2 ZN,99.00,37.3,4.557E-002,4.603E-004,2.546E-004,0.414,0.000,0.000,0.224,0.000
 ZoneInfiltration Airflow Stats Nominal, CORNER_CLASS_1_POD_3_ZN_1_FLR_1 INFILTRATION,SCHOOLSECONDARY INFIL_SCH_PNNL,CORNER_CLASS_1_POD_3_ZN_1_FLR_1 ZN,99.00,37.3,4.668E-002,4.715E-004,5.696E-004,0.424,0.000,0.000,0.224,0.000
 ZoneInfiltration Airflow Stats Nominal, CORNER_CLASS_1_POD_3_ZN_1_FLR_2 INFILTRATION,SCHOOLSECONDARY INFIL_SCH_PNNL,CORNER_CLASS_1_POD_3_ZN_1_FLR_2 ZN,99.00,37.3,4.557E-002,4.603E-004,2.546E-004,0.414,0.000,0.000,0.224,0.000
 ZoneInfiltration Airflow Stats Nominal, CORNER_CLASS_2_POD_1_ZN_1_FLR_1 INFILTRATION,SCHOOLSECONDARY INFIL_SCH_PNNL,CORNER_CLASS_2_POD_1_ZN_1_FLR_1 ZN,99.00,37.3,4.668E-002,4.715E-004,5.696E-004,0.424,0.000,0.000,0.224,0.000
 ZoneInfiltration Airflow Stats Nominal, CORNER_CLASS_2_POD_1_ZN_1_FLR_2 INFILTRATION,SCHOOLSECONDARY INFIL_SCH_PNNL,CORNER_CLASS_2_POD_1_ZN_1_FLR_2 ZN,99.00,37.3,4.557E-002,4.603E-004,2.546E-004,0.414,0.000,0.000,0.224,0.000
 ZoneInfiltration Airflow Stats Nominal, CORNER_CLASS_2_POD_2_ZN_1_FLR_1 INFILTRATION,SCHOOLSECONDARY INFIL_SCH_PNNL,CORNER_CLASS_2_POD_2_ZN_1_FLR_1 ZN,99.00,37.3,4.668E-002,4.715E-004,5.696E-004,0.424,0.000,0.000,0.224,0.000
 ZoneInfiltration Airflow Stats Nominal, CORNER_CLASS_2_POD_2_ZN_1_FLR_2 INFILTRATION,SCHOOLSECONDARY INFIL_SCH_PNNL,CORNER_CLASS_2_POD_2_ZN_1_FLR_2 ZN,99.00,37.3,4.557E-002,4.603E-004,2.546E-004,0.414,0.000,0.000,0.224,0.000
 ZoneInfiltration Airflow Stats Nominal, CORNER_CLASS_2_POD_3_ZN_1_FLR_1 INFILTRATION,SCHOOLSECONDARY INFIL_SCH_PNNL,CORNER_CLASS_2_POD_3_ZN_1_FLR_1 ZN,99.00,37.3,4.668E-002,4.715E-004,5.696E-004,0.424,0.000,0.000,0.224,0.000
 ZoneInfiltration Airflow Stats Nominal, CORNER_CLASS_2_POD_3_ZN_1_FLR_2 INFILTRATION,SCHOOLSECONDARY INFIL_SCH_PNNL,CORNER_CLASS_2_POD_3_ZN_1_FLR_2 ZN,99.00,37.3,4.557E-002,4.603E-004,2.546E-004,0.414,0.000,0.000,0.224,0.000
 ZoneInfiltration Airflow Stats Nominal, CORRIDOR_POD_1_ZN_1_FLR_1 INFILTRATION,SCHOOLSECONDARY INFIL_SCH_PNNL,CORRIDOR_POD_1_ZN_1_FLR_1 ZN,320.00,0.0,1.139E-002,3.560E-005,5.696E-004,3.204E-002,0.000,0.000,0.224,0.000
 ZoneInfiltration Airflow Stats Nominal, CORRIDOR_POD_1_ZN_1_FLR_2 INFILTRATION,SCHOOLSECONDARY INFIL_SCH_PNNL,CORRIDOR_POD_1_ZN_1_FLR_2 ZN,320.00,0.0,1.139E-002,3.560E-005,3.350E-005,3.204E-002,0.000,0.000,0.224,0.000
 ZoneInfiltration Airflow Stats Nominal, CORRIDOR_POD_2_ZN_1_FLR_1 INFILTRATION,SCHOOLSECONDARY INFIL_SCH_PNNL,CORRIDOR_POD_2_ZN_1_FLR_1 ZN,320.00,0.0,1.139E-002,3.560E-005,5.696E-004,3.204E-002,0.000,0.000,0.224,0.000
 ZoneInfiltration Airflow Stats Nominal, CORRIDOR_POD_2_ZN_1_FLR_2 INFILTRATION,SCHOOLSECONDARY INFIL_SCH_PNNL,CORRIDOR_POD_2_ZN_1_FLR_2 ZN,320.00,0.0,1.139E-002,3.560E-005,3.350E-005,3.204E-002,0.000,0.000,0.224,0.000
 ZoneInfiltration Airflow Stats Nominal, CORRIDOR_POD_3_ZN_1_FLR_1 INFILTRATION,SCHOOLSECONDARY INFIL_SCH_PNNL,CORRIDOR_POD_3_ZN_1_FLR_1 ZN,320.00,0.0,1.139E-002,3.560E-005,5.696E-004,3.204E-002,0.000,0.000,0.224,0.000
 ZoneInfiltration Airflow Stats Nominal, CORRIDOR_POD_3_ZN_1_FLR_2 INFILTRATION,SCHOOLSECONDARY INFIL_SCH_PNNL,CORRIDOR_POD_3_ZN_1_FLR_2 ZN,320.00,0.0,1.139E-002,3.560E-005,3.350E-005,3.204E-002,0.000,0.000,0.224,0.000
 ZoneInfiltration Airflow Stats Nominal, KITCHEN_ZN_1_FLR_1 INFILTRATION,SCHOOLSECONDARY INFIL_SCH_PNNL,KITCHEN_ZN_1_FLR_1 ZN,216.00,35.4,2.050E-002,9.493E-005,5.696E-004,8.544E-002,0.000,0.000,0.224,0.000
 ZoneInfiltration Airflow Stats Nominal, LIBRARY_MEDIA_CENTER_ZN_1_FLR_2 INFILTRATION,SCHOOLSECONDARY INFIL_SCH_PNNL,LIBRARY_MEDIA_CENTER_ZN_1_FLR_2 ZN,840.00,90.4,0.134,1.600E-004,1.249E-004,0.144,0.000,0.000,0.224,0.000
 ZoneInfiltration Airflow Stats Nominal, LOBBY_ZN_1_FLR_1 INFILTRATION,SCHOOLSECONDARY INFIL_SCH_PNNL,LOBBY_ZN_1_FLR_1 ZN,210.00,0.0,3.529E-002,1.680E-004,5.696E-004,0.151,0.000,0.000,0.224,0.000
 ZoneInfiltration Airflow Stats Nominal, LOBBY_ZN_1_FLR_2 INFILTRATION,SCHOOLSECONDARY INFIL_SCH_PNNL,LOBBY_ZN_1_FLR_2 ZN,210.00,0.0,3.417E-002,1.627E-004,1.266E-004,0.146,0.000,0.000,0.224,0.000
 ZoneInfiltration Airflow Stats Nominal, MAIN_CORRIDOR_ZN_1_FLR_1 INFILTRATION,SCHOOLSECONDARY INFIL_SCH_PNNL,MAIN_CORRIDOR_ZN_1_FLR_1 ZN,1140.00,0.0,8.196E-002,7.190E-005,5.696E-004,6.471E-002,0.000,0.000,0.224,0.000
 ZoneInfiltration Airflow Stats Nominal, MAIN_CORRIDOR_ZN_1_FLR_2 INFILTRATION,SCHOOLSECONDARY INFIL_SCH_PNNL,MAIN_CORRIDOR_ZN_1_FLR_2 ZN,1140.00,0.0,7.974E-002,6.995E-005,6.230E-005,6.295E-002,0.000,0.000,0.224,0.000
 ZoneInfiltration Airflow Stats Nominal, MULT_CLASS_1_POD_1_ZN_1_FLR_1 INFILTRATION,SCHOOLSECONDARY INFIL_SCH_PNNL,MULT_CLASS_1_POD_1_ZN_1_FLR_1 ZN,477.00,179.7,0.123,2.578E-004,5.696E-004,0.232,0.000,0.000,0.224,0.000
 ZoneInfiltration Airflow Stats Nominal, MULT_CLASS_1_POD_1_ZN_1_FLR_2 INFILTRATION,SCHOOLSECONDARY INFIL_SCH_PNNL,MULT_CLASS_1_POD_1_ZN_1_FLR_2 ZN,477.00,179.7,0.121,2.531E-004,1.753E-004,0.228,0.000,0.000,0.224,0.000
 ZoneInfiltration Airflow Stats Nominal, MULT_CLASS_1_POD_2_ZN_1_FLR_1 INFILTRATION,SCHOOLSECONDARY INFIL_SCH_PNNL,MULT_CLASS_1_POD_2_ZN_1_FLR_1 ZN,477.00,179.7,0.123,2.578E-004,5.696E-004,0.232,0.000,0.000,0.224,0.000
 ZoneInfiltration Airflow Stats Nominal, MULT_CLASS_1_POD_2_ZN_1_FLR_2 INFILTRATION,SCHOOLSECONDARY INFIL_SCH_PNNL,MULT_CLASS_1_POD_2_ZN_1_FLR_2 ZN,477.00,179.7,0.121,2.531E-004,1.753E-004,0.228,0.000,0.000,0.224,0.000
 ZoneInfiltration Airflow Stats Nominal, MULT_CLASS_1_POD_3_ZN_1_FLR_1 INFILTRATION,SCHOOLSECONDARY INFIL_SCH_PNNL,MULT_CLASS_1_POD_3_ZN_1_FLR_1 ZN,477.00,179.7,0.123,2.578E-004,5.696E-004,0.232,0.000,0.000,0.224,0.000
 ZoneInfiltration Airflow Stats Nominal, MULT_CLASS_1_POD_3_ZN_1_FLR_2 INFILTRATION,SCHOOLSECONDARY INFIL_SCH_PNNL,MULT_CLASS_1_POD_3_ZN_1_FLR_2 ZN,477.00,179.7,0.121,2.531E-004,1.753E-004,0.228,0.000,0.000,0.224,0.000
 ZoneInfiltration Airflow Stats Nominal, MULT_CLASS_2_POD_1_ZN_1_FLR_1 INFILTRATION,SCHOOLSECONDARY INFIL_SCH_PNNL,MULT_CLASS_2_POD_1_ZN_1_FLR_1 ZN,477.00,179.7,0.123,2.578E-004,5.696E-004,0.232,0.000,0.000,0.224,0.000
 ZoneInfiltration Airflow Stats Nominal, MULT_CLASS_2_POD_1_ZN_1_FLR_2 INFILTRATION,SCHOOLSECONDARY INFIL_SCH_PNNL,MULT_CLASS_2_POD_1_ZN_1_FLR_2 ZN,477.00,179.7,0.121,2.531E-004,1.753E-004,0.228,0.000,0.000,0.224,0.000
 ZoneInfiltration Airflow Stats Nominal, MULT_CLASS_2_POD_2_ZN_1_FLR_1 INFILTRATION,SCHOOLSECONDARY INFIL_SCH_PNNL,MULT_CLASS_2_POD_2_ZN_1_FLR_1 ZN,477.00,179.7,0.123,2.578E-004,5.696E-004,0.232,0.000,0.000,0.224,0.000
 ZoneInfiltration Airflow Stats Nominal, MULT_CLASS_2_POD_2_ZN_1_FLR_2 INFILTRATION,SCHOOLSECONDARY INFIL_SCH_PNNL,MULT_CLASS_2_POD_2_ZN_1_FLR_2 ZN,477.00,179.7,0.121,2.531E-004,1.753E-004,0.228,0.000,0.000,0.224,0.000
 ZoneInfiltration Airflow Stats Nominal, MULT_CLASS_2_POD_3_ZN_1_FLR_1 INFILTRATION,SCHOOLSECONDARY INFIL_SCH_PNNL,MULT_CLASS_2_POD_3_ZN_1_FLR_1 ZN,477.00,179.7,0.123,2.578E-004,5.696E-004,0.232,0.000,0.000,0.224,0.000
 ZoneInfiltration Airflow Stats Nominal, MULT_CLASS_2_POD_3_ZN_1_FLR_2 INFILTRATION,SCHOOLSECONDARY INFIL_SCH_PNNL,MULT_CLASS_2_POD_3_ZN_1_FLR_2 ZN,477.00,179.7,0.121,2.531E-004,1.753E-004,0.228,0.000,0.000,0.224,0.000
 ZoneInfiltration Airflow Stats Nominal, OFFICES_ZN_1_FLR_1 INFILTRATION,SCHOOLSECONDARY INFIL_SCH_PNNL,OFFICES_ZN_1_FLR_1 ZN,532.00,28.6,0.121,2.269E-004,5.696E-004,0.204,0.000,0.000,0.224,0.000
 ZoneInfiltration Airflow Stats Nominal, OFFICES_ZN_1_FLR_2 INFILTRATION,SCHOOLSECONDARY INFIL_SCH_PNNL,OFFICES_ZN_1_FLR_2 ZN,532.00,28.6,0.118,2.227E-004,1.601E-004,0.200,0.000,0.000,0.224,0.000
! <AirFlow Model>, Simple
 AirFlow Model, Simple
! <RoomAir Model>, Zone Name, Mixing/Mundt/UCSDDV/UCSDCV/UCSDUFI/UCSDUFE/User Defined
RoomAir Model,AUDITORIUM_ZN_1_FLR_1 ZN,Mixing/Well-Stirred
RoomAir Model,AUX_GYM_ZN_1_FLR_1 ZN,Mixing/Well-Stirred
RoomAir Model,BATHROOMS_ZN_1_FLR_1 ZN,Mixing/Well-Stirred
RoomAir Model,BATHROOMS_ZN_1_FLR_2 ZN,Mixing/Well-Stirred
RoomAir Model,CAFETERIA_ZN_1_FLR_1 ZN,Mixing/Well-Stirred
RoomAir Model,CORNER_CLASS_1_POD_1_ZN_1_FLR_1 ZN,Mixing/Well-Stirred
RoomAir Model,CORNER_CLASS_1_POD_1_ZN_1_FLR_2 ZN,Mixing/Well-Stirred
RoomAir Model,CORNER_CLASS_1_POD_2_ZN_1_FLR_1 ZN,Mixing/Well-Stirred
RoomAir Model,CORNER_CLASS_1_POD_2_ZN_1_FLR_2 ZN,Mixing/Well-Stirred
RoomAir Model,CORNER_CLASS_1_POD_3_ZN_1_FLR_1 ZN,Mixing/Well-Stirred
RoomAir Model,CORNER_CLASS_1_POD_3_ZN_1_FLR_2 ZN,Mixing/Well-Stirred
RoomAir Model,CORNER_CLASS_2_POD_1_ZN_1_FLR_1 ZN,Mixing/Well-Stirred
RoomAir Model,CORNER_CLASS_2_POD_1_ZN_1_FLR_2 ZN,Mixing/Well-Stirred
RoomAir Model,CORNER_CLASS_2_POD_2_ZN_1_FLR_1 ZN,Mixing/Well-Stirred
RoomAir Model,CORNER_CLASS_2_POD_2_ZN_1_FLR_2 ZN,Mixing/Well-Stirred
RoomAir Model,CORNER_CLASS_2_POD_3_ZN_1_FLR_1 ZN,Mixing/Well-Stirred
RoomAir Model,CORNER_CLASS_2_POD_3_ZN_1_FLR_2 ZN,Mixing/Well-Stirred
RoomAir Model,CORRIDOR_POD_1_ZN_1_FLR_1 ZN,Mixing/Well-Stirred
RoomAir Model,CORRIDOR_POD_1_ZN_1_FLR_2 ZN,Mixing/Well-Stirred
RoomAir Model,CORRIDOR_POD_2_ZN_1_FLR_1 ZN,Mixing/Well-Stirred
RoomAir Model,CORRIDOR_POD_2_ZN_1_FLR_2 ZN,Mixing/Well-Stirred
RoomAir Model,CORRIDOR_POD_3_ZN_1_FLR_1 ZN,Mixing/Well-Stirred
RoomAir Model,CORRIDOR_POD_3_ZN_1_FLR_2 ZN,Mixing/Well-Stirred
RoomAir Model,GYM_ZN_1_FLR_1 ZN,Mixing/Well-Stirred
RoomAir Model,KITCHEN_ZN_1_FLR_1 ZN,Mixing/Well-Stirred
RoomAir Model,LIBRARY_MEDIA_CENTER_ZN_1_FLR_2 ZN,Mixing/Well-Stirred
RoomAir Model,LOBBY_ZN_1_FLR_1 ZN,Mixing/Well-Stirred
RoomAir Model,LOBBY_ZN_1_FLR_2 ZN,Mixing/Well-Stirred
RoomAir Model,MAIN_CORRIDOR_ZN_1_FLR_1 ZN,Mixing/Well-Stirred
RoomAir Model,MAIN_CORRIDOR_ZN_1_FLR_2 ZN,Mixing/Well-Stirred
RoomAir Model,MECH_ZN_1_FLR_1 ZN,Mixing/Well-Stirred
RoomAir Model,MECH_ZN_1_FLR_2 ZN,Mixing/Well-Stirred
RoomAir Model,MULT_CLASS_1_POD_1_ZN_1_FLR_1 ZN,Mixing/Well-Stirred
RoomAir Model,MULT_CLASS_1_POD_1_ZN_1_FLR_2 ZN,Mixing/Well-Stirred
RoomAir Model,MULT_CLASS_1_POD_2_ZN_1_FLR_1 ZN,Mixing/Well-Stirred
RoomAir Model,MULT_CLASS_1_POD_2_ZN_1_FLR_2 ZN,Mixing/Well-Stirred
RoomAir Model,MULT_CLASS_1_POD_3_ZN_1_FLR_1 ZN,Mixing/Well-Stirred
RoomAir Model,MULT_CLASS_1_POD_3_ZN_1_FLR_2 ZN,Mixing/Well-Stirred
RoomAir Model,MULT_CLASS_2_POD_1_ZN_1_FLR_1 ZN,Mixing/Well-Stirred
[...]
Environment:Design Day Misc,202,1084.4,0.2082,0.1365,1.0,-6.23,20.6,ASHRAETau
Environment:WarmupDays,  6
! <Tabular Report>,Style,Unit Conversion
Tabular Report,HTML,None
! <Warmup Convergence Information>,Zone Name,Environment Type/Name,Average Warmup Temperature Difference {deltaC},Std Dev Warmup Temperature Difference {deltaC},Max Temperature Pass/Fail Convergence,Min Temperature Pass/Fail Convergence,Average Warmup Load Difference {W},Std Dev Warmup Load Difference {W},Heating Load Pass/Fail Convergence,Cooling Load Pass/Fail Convergence
 Warmup Convergence Information,AUDITORIUM_ZN_1_FLR_1 ZN,SizingPeriod: EL PASO INTERNATIONAL AP  UT ANN CLG .4% CONDNS DB=>MWB,0.6517189156,0.6727896278,Pass,Pass,0.5237196612,0.9200581456,Pass,Pass
 Warmup Convergence Information,AUX_GYM_ZN_1_FLR_1 ZN,SizingPeriod: EL PASO INTERNATIONAL AP  UT ANN CLG .4% CONDNS DB=>MWB,0.3836874685,0.3915578357,Pass,Pass,0.3235935570,0.4446520344,Pass,Pass
 Warmup Convergence Information,BATHROOMS_ZN_1_FLR_1 ZN,SizingPeriod: EL PASO INTERNATIONAL AP  UT ANN CLG .4% CONDNS DB=>MWB,0.5106075123,0.6585593889,Pass,Pass,0.2663254531,0.4206803026,Pass,Pass
 Warmup Convergence Information,BATHROOMS_ZN_1_FLR_2 ZN,SizingPeriod: EL PASO INTERNATIONAL AP  UT ANN CLG .4% CONDNS DB=>MWB,0.5760885559,0.7556090077,Pass,Pass,0.2884276150,0.4116460869,Pass,Pass
 Warmup Convergence Information,CAFETERIA_ZN_1_FLR_1 ZN,SizingPeriod: EL PASO INTERNATIONAL AP  UT ANN CLG .4% CONDNS DB=>MWB,0.8139249678,0.9630779177,Pass,Pass,0.3633879119,0.4298540408,Pass,Pass
 Warmup Convergence Information,CORNER_CLASS_1_POD_1_ZN_1_FLR_1 ZN,SizingPeriod: EL PASO INTERNATIONAL AP  UT ANN CLG .4% CONDNS DB=>MWB,1.1182377884,1.2442814882,Pass,Pass,0.3156956306,0.4142031337,Pass,Pass
 Warmup Convergence Information,CORNER_CLASS_1_POD_1_ZN_1_FLR_2 ZN,SizingPeriod: EL PASO INTERNATIONAL AP  UT ANN CLG .4% CONDNS DB=>MWB,1.1886371125,1.2811559405,Pass,Pass,0.3198971421,0.4115266756,Pass,Pass
 Warmup Convergence Information,CORNER_CLASS_1_POD_2_ZN_1_FLR_1 ZN,SizingPeriod: EL PASO INTERNATIONAL AP  UT ANN CLG .4% CONDNS DB=>MWB,1.1198512483,1.2491402402,Pass,Pass,0.3147491552,0.4148901891,Pass,Pass
 Warmup Convergence Information,CORNER_CLASS_1_POD_2_ZN_1_FLR_2 ZN,SizingPeriod: EL PASO INTERNATIONAL AP  UT ANN CLG .4% CONDNS DB=>MWB,1.1925993258,1.2838714008,Pass,Pass,0.3193418914,0.4117093038,Pass,Pass
 Warmup Convergence Information,CORNER_CLASS_1_POD_3_ZN_1_FLR_1 ZN,SizingPeriod: EL PASO INTERNATIONAL AP  UT ANN CLG .4% CONDNS DB=>MWB,1.0962625119,1.2332687317,Pass,Pass,0.3156724844,0.4137637560,Pass,Pass
 Warmup Convergence Information,CORNER_CLASS_1_POD_3_ZN_1_FLR_2 ZN,SizingPeriod: EL PASO INTERNATIONAL AP  UT ANN CLG .4% CONDNS DB=>MWB,1.1723834199,1.2758324268,Pass,Pass,0.3200633018,0.4105565061,Pass,Pass
 Warmup Convergence Information,CORNER_CLASS_2_POD_1_ZN_1_FLR_1 ZN,SizingPeriod: EL PASO INTERNATIONAL AP  UT ANN CLG .4% CONDNS DB=>MWB,1.0601951775,1.1970922507,Pass,Pass,0.3107396116,0.4136157971,Pass,Pass
 Warmup Convergence Information,CORNER_CLASS_2_POD_1_ZN_1_FLR_2 ZN,SizingPeriod: EL PASO INTERNATIONAL AP  UT ANN CLG .4% CONDNS DB=>MWB,1.1401411416,1.2530388023,Pass,Pass,0.3163612844,0.4107543642,Pass,Pass
 Warmup Convergence Information,CORNER_CLASS_2_POD_2_ZN_1_FLR_1 ZN,SizingPeriod: EL PASO INTERNATIONAL AP  UT ANN CLG .4% CONDNS DB=>MWB,1.0676435892,1.2032749381,Pass,Pass,0.3103653769,0.4137165903,Pass,Pass
 Warmup Convergence Information,CORNER_CLASS_2_POD_2_ZN_1_FLR_2 ZN,SizingPeriod: EL PASO INTERNATIONAL AP  UT ANN CLG .4% CONDNS DB=>MWB,1.1485137630,1.2582416193,Pass,Pass,0.3160948959,0.4109408309,Pass,Pass
 Warmup Convergence Information,CORNER_CLASS_2_POD_3_ZN_1_FLR_1 ZN,SizingPeriod: EL PASO INTERNATIONAL AP  UT ANN CLG .4% CONDNS DB=>MWB,1.0545006362,1.1892387685,Pass,Pass,0.3124975790,0.4126987727,Pass,Pass
 Warmup Convergence Information,CORNER_CLASS_2_POD_3_ZN_1_FLR_2 ZN,SizingPeriod: EL PASO INTERNATIONAL AP  UT ANN CLG .4% CONDNS DB=>MWB,1.1293538738,1.2510137198,Pass,Pass,0.3168891130,0.4098713622,Pass,Pass
 Warmup Convergence Information,CORRIDOR_POD_1_ZN_1_FLR_1 ZN,SizingPeriod: EL PASO INTERNATIONAL AP  UT ANN CLG .4% CONDNS DB=>MWB,0.3565268041,0.4720481750,Pass,Pass,0.2832926700,0.4224862893,Pass,Pass
 Warmup Convergence Information,CORRIDOR_POD_1_ZN_1_FLR_2 ZN,SizingPeriod: EL PASO INTERNATIONAL AP  UT ANN CLG .4% CONDNS DB=>MWB,0.5063482184,0.6097717009,Pass,Pass,0.3009910752,0.4110576528,Pass,Pass
 Warmup Convergence Information,CORRIDOR_POD_2_ZN_1_FLR_1 ZN,SizingPeriod: EL PASO INTERNATIONAL AP  UT ANN CLG .4% CONDNS DB=>MWB,0.3552524993,0.4706129097,Pass,Pass,0.2827130872,0.4222755134,Pass,Pass
 Warmup Convergence Information,CORRIDOR_POD_2_ZN_1_FLR_2 ZN,SizingPeriod: EL PASO INTERNATIONAL AP  UT ANN CLG .4% CONDNS DB=>MWB,0.5079726416,0.6101332792,Pass,Pass,0.3004602358,0.4112743512,Pass,Pass
 Warmup Convergence Information,CORRIDOR_POD_3_ZN_1_FLR_1 ZN,SizingPeriod: EL PASO INTERNATIONAL AP  UT ANN CLG .4% CONDNS DB=>MWB,0.3657241687,0.4812587470,Pass,Pass,0.2811394599,0.4222245214,Pass,Pass
 Warmup Convergence Information,CORRIDOR_POD_3_ZN_1_FLR_2 ZN,SizingPeriod: EL PASO INTERNATIONAL AP  UT ANN CLG .4% CONDNS DB=>MWB,0.5085591624,0.6213933145,Pass,Pass,0.3006676831,0.4106108936,Pass,Pass
 Warmup Convergence Information,GYM_ZN_1_FLR_1 ZN,SizingPeriod: EL PASO INTERNATIONAL AP  UT ANN CLG .4% CONDNS DB=>MWB,0.3632587280,0.3665089833,Pass,Pass,0.3057609325,0.4245378696,Pass,Pass
 Warmup Convergence Information,KITCHEN_ZN_1_FLR_1 ZN,SizingPeriod: EL PASO INTERNATIONAL AP  UT ANN CLG .4% CONDNS DB=>MWB,1.1904892480,1.3779421987,Pass,Pass,0.3076091387,0.4075825763,Pass,Pass
 Warmup Convergence Information,LIBRARY_MEDIA_CENTER_ZN_1_FLR_2 ZN,SizingPeriod: EL PASO INTERNATIONAL AP  UT ANN CLG .4% CONDNS DB=>MWB,0.8023199937,1.0606355820,Pass,Pass,0.2895245600,0.4047539836,Pass,Pass
 Warmup Convergence Information,LOBBY_ZN_1_FLR_1 ZN,SizingPeriod: EL PASO INTERNATIONAL AP  UT ANN CLG .4% CONDNS DB=>MWB,0.4862703391,0.6237739142,Pass,Pass,0.2792529292,0.4183712465,Pass,Pass
 Warmup Convergence Information,LOBBY_ZN_1_FLR_2 ZN,SizingPeriod: EL PASO INTERNATIONAL AP  UT ANN CLG .4% CONDNS DB=>MWB,0.5514952257,0.7114861059,Pass,Pass,0.3010967376,0.4132454626,Pass,Pass
 Warmup Convergence Information,MAIN_CORRIDOR_ZN_1_FLR_1 ZN,SizingPeriod: EL PASO INTERNATIONAL AP  UT ANN CLG .4% CONDNS DB=>MWB,0.4252493753,0.5218450777,Pass,Pass,0.2776178387,0.4228698243,Pass,Pass
 Warmup Convergence Information,MAIN_CORRIDOR_ZN_1_FLR_2 ZN,SizingPeriod: EL PASO INTERNATIONAL AP  UT ANN CLG .4% CONDNS DB=>MWB,0.4859713648,0.6133455696,Pass,Pass,0.3040431514,0.4143271250,Pass,Pass
 Warmup Convergence Information,MECH_ZN_1_FLR_1 ZN,SizingPeriod: EL PASO INTERNATIONAL AP  UT ANN CLG .4% CONDNS DB=>MWB,1.1754932057,1.4928418836,Pass,Pass,0.2546734604,0.4282853190,Pass,Pass
 Warmup Convergence Information,MECH_ZN_1_FLR_2 ZN,SizingPeriod: EL PASO INTERNATIONAL AP  UT ANN CLG .4% CONDNS DB=>MWB,0.6258977566,0.7882162115,Pass,Pass,0.2687544226,0.4196377303,Pass,Pass
 Warmup Convergence Information,MULT_CLASS_1_POD_1_ZN_1_FLR_1 ZN,SizingPeriod: EL PASO INTERNATIONAL AP  UT ANN CLG .4% CONDNS DB=>MWB,0.9588963832,1.0875358853,Pass,Pass,0.3076714791,0.4135719257,Pass,Pass
 Warmup Convergence Information,MULT_CLASS_1_POD_1_ZN_1_FLR_2 ZN,SizingPeriod: EL PASO INTERNATIONAL AP  UT ANN CLG .4% CONDNS DB=>MWB,1.0633064724,1.1945384566,Pass,Pass,0.3131462205,0.4117508313,Pass,Pass
 Warmup Convergence Information,MULT_CLASS_1_POD_2_ZN_1_FLR_1 ZN,SizingPeriod: EL PASO INTERNATIONAL AP  UT ANN CLG .4% CONDNS DB=>MWB,0.9471580295,1.0795261345,Pass,Pass,0.3060487207,0.4135117949,Pass,Pass
 Warmup Convergence Information,MULT_CLASS_1_POD_2_ZN_1_FLR_2 ZN,SizingPeriod: EL PASO INTERNATIONAL AP  UT ANN CLG .4% CONDNS DB=>MWB,1.0640276979,1.1941955749,Pass,Pass,0.3124355869,0.4117903835,Pass,Pass
 Warmup Convergence Information,MULT_CLASS_1_POD_3_ZN_1_FLR_1 ZN,SizingPeriod: EL PASO INTERNATIONAL AP  UT ANN CLG .4% CONDNS DB=>MWB,0.9262438288,1.0672691019,Pass,Pass,0.3070150792,0.4145693579,Pass,Pass
 Warmup Convergence Information,MULT_CLASS_1_POD_3_ZN_1_FLR_2 ZN,SizingPeriod: EL PASO INTERNATIONAL AP  UT ANN CLG .4% CONDNS DB=>MWB,1.0833248784,1.2559234167,Pass,Pass,0.3116033543,0.4112519591,Pass,Pass
 Warmup Convergence Information,MULT_CLASS_2_POD_1_ZN_1_FLR_1 ZN,SizingPeriod: EL PASO INTERNATIONAL AP  UT ANN CLG .4% CONDNS DB=>MWB,0.8775165019,1.0210503838,Pass,Pass,0.3019081103,0.4161479687,Pass,Pass
 Warmup Convergence Information,MULT_CLASS_2_POD_1_ZN_1_FLR_2 ZN,SizingPeriod: EL PASO INTERNATIONAL AP  UT ANN CLG .4% CONDNS DB=>MWB,0.9976050442,1.1506456650,Pass,Pass,0.3081763084,0.4130360421,Pass,Pass
 Warmup Convergence Information,MULT_CLASS_2_POD_2_ZN_1_FLR_1 ZN,SizingPeriod: EL PASO INTERNATIONAL AP  UT ANN CLG .4% CONDNS DB=>MWB,0.8839865300,1.0272620870,Pass,Pass,0.3015943563,0.4160209477,Pass,Pass
 Warmup Convergence Information,MULT_CLASS_2_POD_2_ZN_1_FLR_2 ZN,SizingPeriod: EL PASO INTERNATIONAL AP  UT ANN CLG .4% CONDNS DB=>MWB,1.0059430096,1.1571879504,Pass,Pass,0.3079761475,0.4129055644,Pass,Pass
 Warmup Convergence Information,MULT_CLASS_2_POD_3_ZN_1_FLR_1 ZN,SizingPeriod: EL PASO INTERNATIONAL AP  UT ANN CLG .4% CONDNS DB=>MWB,0.8780585340,1.0311154183,Pass,Pass,0.3032705244,0.4168153521,Pass,Pass
 Warmup Convergence Information,MULT_CLASS_2_POD_3_ZN_1_FLR_2 ZN,SizingPeriod: EL PASO INTERNATIONAL AP  UT ANN CLG .4% CONDNS DB=>MWB,1.0311519500,1.2179416311,Pass,Pass,0.3073408647,0.4128387104,Pass,Pass
 Warmup Convergence Information,OFFICES_ZN_1_FLR_1 ZN,SizingPeriod: EL PASO INTERNATIONAL AP  UT ANN CLG .4% CONDNS DB=>MWB,0.6500594231,0.8544888515,Pass,Pass,0.2864833765,0.4126643905,Pass,Pass
 Warmup Convergence Information,OFFICES_ZN_1_FLR_2 ZN,SizingPeriod: EL PASO INTERNATIONAL AP  UT ANN CLG .4% CONDNS DB=>MWB,0.7221309865,0.9468828097,Pass,Pass,0.2993595792,0.4062175781,Pass,Pass
Environment,EL PASO INTERNATIONAL AP  UT ANN HTG 99.6% CONDNS DB,SizingPeriod:DesignDay,12/21,12/21,WinterDesignDay,1,N/A,N/A,N/A,N/A,N/A,N/A,Clark and Allen
Environment:Daylight Saving,No,SizingPeriod:DesignDay
Environment:Design Day Data,-5.20,0.00,DefaultMultipliers,Wetbulb,-5.20,{C},97679,20,2.2,0.00,No,No
Environment:Design Day Misc,355,1232.8,0.1424,5.7719E-002,1.0,2.45,-23.5,ASHRAEClearSky
Environment:WarmupDays,  8
 Warmup Convergence Information,AUDITORIUM_ZN_1_FLR_1 ZN,SizingPeriod: EL PASO INTERNATIONAL AP  UT ANN HTG 99.6% CONDNS DB,0.4752182352,0.6504222270,Pass,Pass,0.2559064054,0.4147370962,Pass,Pass
 Warmup Convergence Information,AUX_GYM_ZN_1_FLR_1 ZN,SizingPeriod: EL PASO INTERNATIONAL AP  UT ANN HTG 99.6% CONDNS DB,0.5939838846,0.8160322053,Pass,Pass,0.2577149248,0.4139977252,Pass,Pass
 Warmup Convergence Information,BATHROOMS_ZN_1_FLR_1 ZN,SizingPeriod: EL PASO INTERNATIONAL AP  UT ANN HTG 99.6% CONDNS DB,0.4490870216,0.5690496162,Pass,Pass,0.2782020155,0.4255937770,Pass,Pass
 Warmup Convergence Information,BATHROOMS_ZN_1_FLR_2 ZN,SizingPeriod: EL PASO INTERNATIONAL AP  UT ANN HTG 99.6% CONDNS DB,0.6919787540,0.8909353300,Pass,Pass,0.2724945296,0.4250530113,Pass,Pass
 Warmup Convergence Information,CAFETERIA_ZN_1_FLR_1 ZN,SizingPeriod: EL PASO INTERNATIONAL AP  UT ANN HTG 99.6% CONDNS DB,0.2965493746,0.4002938931,Pass,Pass,0.2773252435,0.4682974306,Pass,Pass
 Warmup Convergence Information,CORNER_CLASS_1_POD_1_ZN_1_FLR_1 ZN,SizingPeriod: EL PASO INTERNATIONAL AP  UT ANN HTG 99.6% CONDNS DB,1.1084832451,1.2711748741,Pass,Pass,0.3528078241,0.5336667546,Pass,Pass
 Warmup Convergence Information,CORNER_CLASS_1_POD_1_ZN_1_FLR_2 ZN,SizingPeriod: EL PASO INTERNATIONAL AP  UT ANN HTG 99.6% CONDNS DB,1.3414764252,1.5284970361,Pass,Pass,0.3381628685,0.4863998083,Pass,Pass
 Warmup Convergence Information,CORNER_CLASS_1_POD_2_ZN_1_FLR_1 ZN,SizingPeriod: EL PASO INTERNATIONAL AP  UT ANN HTG 99.6% CONDNS DB,1.0891418241,1.2535655284,Pass,Pass,0.3496333554,0.5259908220,Pass,Pass
 Warmup Convergence Information,CORNER_CLASS_1_POD_2_ZN_1_FLR_2 ZN,SizingPeriod: EL PASO INTERNATIONAL AP  UT ANN HTG 99.6% CONDNS DB,1.3258655982,1.5178380453,Pass,Pass,0.3356053428,0.4826606467,Pass,Pass
 Warmup Convergence Information,CORNER_CLASS_1_POD_3_ZN_1_FLR_1 ZN,SizingPeriod: EL PASO INTERNATIONAL AP  UT ANN HTG 99.6% CONDNS DB,1.0944629397,1.2533736744,Pass,Pass,0.3499593180,0.5285121234,Pass,Pass
 Warmup Convergence Information,CORNER_CLASS_1_POD_3_ZN_1_FLR_2 ZN,SizingPeriod: EL PASO INTERNATIONAL AP  UT ANN HTG 99.6% CONDNS DB,1.3323102651,1.5169833093,Pass,Pass,0.3360543609,0.4835612767,Pass,Pass
 Warmup Convergence Information,CORNER_CLASS_2_POD_1_ZN_1_FLR_1 ZN,SizingPeriod: EL PASO INTERNATIONAL AP  UT ANN HTG 99.6% CONDNS DB,1.0873106612,1.2475374604,Pass,Pass,0.3421969214,0.5147630152,Pass,Pass
 Warmup Convergence Information,CORNER_CLASS_2_POD_1_ZN_1_FLR_2 ZN,SizingPeriod: EL PASO INTERNATIONAL AP  UT ANN HTG 99.6% CONDNS DB,1.3305907831,1.5193391167,Pass,Pass,0.3295306177,0.4751009427,Pass,Pass
 Warmup Convergence Information,CORNER_CLASS_2_POD_2_ZN_1_FLR_1 ZN,SizingPeriod: EL PASO INTERNATIONAL AP  UT ANN HTG 99.6% CONDNS DB,1.0780491160,1.2426699206,Pass,Pass,0.3381071091,0.5061046731,Pass,Pass
 Warmup Convergence Information,CORNER_CLASS_2_POD_2_ZN_1_FLR_2 ZN,SizingPeriod: EL PASO INTERNATIONAL AP  UT ANN HTG 99.6% CONDNS DB,1.3193057949,1.5135572995,Pass,Pass,0.3273446242,0.4721238842,Pass,Pass
 Warmup Convergence Information,CORNER_CLASS_2_POD_3_ZN_1_FLR_1 ZN,SizingPeriod: EL PASO INTERNATIONAL AP  UT ANN HTG 99.6% CONDNS DB,1.0895700044,1.2505698086,Pass,Pass,0.3387514993,0.5085809959,Pass,Pass
 Warmup Convergence Information,CORNER_CLASS_2_POD_3_ZN_1_FLR_2 ZN,SizingPeriod: EL PASO INTERNATIONAL AP  UT ANN HTG 99.6% CONDNS DB,1.3273938734,1.5148681913,Pass,Pass,0.3275329614,0.4725524092,Pass,Pass
 Warmup Convergence Information,CORRIDOR_POD_1_ZN_1_FLR_1 ZN,SizingPeriod: EL PASO INTERNATIONAL AP  UT ANN HTG 99.6% CONDNS DB,0.3696968092,0.3829027257,Pass,Pass,1.2795905919,4.4612887862,Pass,Pass
 Warmup Convergence Information,CORRIDOR_POD_1_ZN_1_FLR_2 ZN,SizingPeriod: EL PASO INTERNATIONAL AP  UT ANN HTG 99.6% CONDNS DB,0.6755841257,0.7119301964,Pass,Pass,0.3401520627,0.5046332147,Pass,Pass
 Warmup Convergence Information,CORRIDOR_POD_2_ZN_1_FLR_1 ZN,SizingPeriod: EL PASO INTERNATIONAL AP  UT ANN HTG 99.6% CONDNS DB,0.3638567348,0.3775633424,Pass,Pass,1.0585416322,3.4953699639,Pass,Pass
 Warmup Convergence Information,CORRIDOR_POD_2_ZN_1_FLR_2 ZN,SizingPeriod: EL PASO INTERNATIONAL AP  UT ANN HTG 99.6% CONDNS DB,0.6687336032,0.7078824390,Pass,Pass,0.3380561219,0.4983892390,Pass,Pass
 Warmup Convergence Information,CORRIDOR_POD_3_ZN_1_FLR_1 ZN,SizingPeriod: EL PASO INTERNATIONAL AP  UT ANN HTG 99.6% CONDNS DB,0.3644433991,0.3770957166,Pass,Pass,1.2838057457,4.4842577602,Pass,Pass
 Warmup Convergence Information,CORRIDOR_POD_3_ZN_1_FLR_2 ZN,SizingPeriod: EL PASO INTERNATIONAL AP  UT ANN HTG 99.6% CONDNS DB,0.6595037493,0.6937368793,Pass,Pass,0.3414383064,0.5136496077,Pass,Pass
 Warmup Convergence Information,GYM_ZN_1_FLR_1 ZN,SizingPeriod: EL PASO INTERNATIONAL AP  UT ANN HTG 99.6% CONDNS DB,0.3769609495,0.5078476182,Pass,Pass,0.2567738680,0.4147772960,Pass,Pass
 Warmup Convergence Information,KITCHEN_ZN_1_FLR_1 ZN,SizingPeriod: EL PASO INTERNATIONAL AP  UT ANN HTG 99.6% CONDNS DB,0.1458898413,0.3686683910,Pass,Pass,6.1316126427E-002,0.1455542498,Pass,Pass
 Warmup Convergence Information,LIBRARY_MEDIA_CENTER_ZN_1_FLR_2 ZN,SizingPeriod: EL PASO INTERNATIONAL AP  UT ANN HTG 99.6% CONDNS DB,0.6108132867,0.7438510560,Pass,Pass,0.2972211439,0.4276537810,Pass,Pass
 Warmup Convergence Information,LOBBY_ZN_1_FLR_1 ZN,SizingPeriod: EL PASO INTERNATIONAL AP  UT ANN HTG 99.6% CONDNS DB,0.4181470914,0.5175918935,Pass,Pass,0.2843007144,0.4240907225,Pass,Pass
 Warmup Convergence Information,LOBBY_ZN_1_FLR_2 ZN,SizingPeriod: EL PASO INTERNATIONAL AP  UT ANN HTG 99.6% CONDNS DB,0.6520316225,0.8298076687,Pass,Pass,0.2760567201,0.4247959438,Pass,Pass
 Warmup Convergence Information,MAIN_CORRIDOR_ZN_1_FLR_1 ZN,SizingPeriod: EL PASO INTERNATIONAL AP  UT ANN HTG 99.6% CONDNS DB,0.2737706277,0.2705804221,Pass,Pass,0.3604624436,0.4285540262,Pass,Pass
 Warmup Convergence Information,MAIN_CORRIDOR_ZN_1_FLR_2 ZN,SizingPeriod: EL PASO INTERNATIONAL AP  UT ANN HTG 99.6% CONDNS DB,0.4977044303,0.6208999614,Pass,Pass,0.2831508932,0.4244712870,Pass,Pass
 Warmup Convergence Information,MECH_ZN_1_FLR_1 ZN,SizingPeriod: EL PASO INTERNATIONAL AP  UT ANN HTG 99.6% CONDNS DB,8.5018915435E-002,0.1051060142,Pass,Pass,0.4388317790,0.5658294186,Pass,Pass
 Warmup Convergence Information,MECH_ZN_1_FLR_2 ZN,SizingPeriod: EL PASO INTERNATIONAL AP  UT ANN HTG 99.6% CONDNS DB,0.3592159256,0.4255180837,Pass,Pass,0.3239918849,0.4362268546,Pass,Pass
 Warmup Convergence Information,MULT_CLASS_1_POD_1_ZN_1_FLR_1 ZN,SizingPeriod: EL PASO INTERNATIONAL AP  UT ANN HTG 99.6% CONDNS DB,0.8446805720,0.9434004019,Pass,Pass,0.6956067592,1.5815343998,Pass,Pass
 Warmup Convergence Information,MULT_CLASS_1_POD_1_ZN_1_FLR_2 ZN,SizingPeriod: EL PASO INTERNATIONAL AP  UT ANN HTG 99.6% CONDNS DB,1.1022410419,1.2226380300,Pass,Pass,0.4088767441,0.6189886355,Pass,Pass
 Warmup Convergence Information,MULT_CLASS_1_POD_2_ZN_1_FLR_1 ZN,SizingPeriod: EL PASO INTERNATIONAL AP  UT ANN HTG 99.6% CONDNS DB,0.8172654796,0.9127998865,Pass,Pass,0.6859448447,1.5476597776,Pass,Pass
 Warmup Convergence Information,MULT_CLASS_1_POD_2_ZN_1_FLR_2 ZN,SizingPeriod: EL PASO INTERNATIONAL AP  UT ANN HTG 99.6% CONDNS DB,1.0826009792,1.2028500383,Pass,Pass,0.4017432927,0.6033395187,Pass,Pass
 Warmup Convergence Information,MULT_CLASS_1_POD_3_ZN_1_FLR_1 ZN,SizingPeriod: EL PASO INTERNATIONAL AP  UT ANN HTG 99.6% CONDNS DB,0.8172396714,0.9111089967,Pass,Pass,0.8015846177,1.9070173410,Pass,Pass
 Warmup Convergence Information,MULT_CLASS_1_POD_3_ZN_1_FLR_2 ZN,SizingPeriod: EL PASO INTERNATIONAL AP  UT ANN HTG 99.6% CONDNS DB,1.0226908375,1.1153559628,Pass,Pass,0.5368282201,0.9449186119,Pass,Pass
 Warmup Convergence Information,MULT_CLASS_2_POD_1_ZN_1_FLR_1 ZN,SizingPeriod: EL PASO INTERNATIONAL AP  UT ANN HTG 99.6% CONDNS DB,0.8058272547,0.9017322045,Pass,Pass,0.5982630742,1.3293666402,Pass,Pass
 Warmup Convergence Information,MULT_CLASS_2_POD_1_ZN_1_FLR_2 ZN,SizingPeriod: EL PASO INTERNATIONAL AP  UT ANN HTG 99.6% CONDNS DB,1.0762940086,1.1971229458,Pass,Pass,0.3797336585,0.5661954674,Pass,Pass
 Warmup Convergence Information,MULT_CLASS_2_POD_2_ZN_1_FLR_1 ZN,SizingPeriod: EL PASO INTERNATIONAL AP  UT ANN HTG 99.6% CONDNS DB,0.7977188099,0.8928517678,Pass,Pass,0.5595803807,1.1848600741,Pass,Pass
 Warmup Convergence Information,MULT_CLASS_2_POD_2_ZN_1_FLR_2 ZN,SizingPeriod: EL PASO INTERNATIONAL AP  UT ANN HTG 99.6% CONDNS DB,1.0657458094,1.1914248670,Pass,Pass,0.3745940077,0.5544997870,Pass,Pass
 Warmup Convergence Information,MULT_CLASS_2_POD_3_ZN_1_FLR_1 ZN,SizingPeriod: EL PASO INTERNATIONAL AP  UT ANN HTG 99.6% CONDNS DB,0.8112739797,0.9076483247,Pass,Pass,0.5829351735,1.2619894872,Pass,Pass
 Warmup Convergence Information,MULT_CLASS_2_POD_3_ZN_1_FLR_2 ZN,SizingPeriod: EL PASO INTERNATIONAL AP  UT ANN HTG 99.6% CONDNS DB,1.0145229516,1.1098863661,Pass,Pass,0.4762233725,0.7969476846,Pass,Pass
 Warmup Convergence Information,OFFICES_ZN_1_FLR_1 ZN,SizingPeriod: EL PASO INTERNATIONAL AP  UT ANN HTG 99.6% CONDNS DB,0.4690168156,0.5739286483,Pass,Pass,0.3086520131,0.4342809368,Pass,Pass
 Warmup Convergence Information,OFFICES_ZN_1_FLR_2 ZN,SizingPeriod: EL PASO INTERNATIONAL AP  UT ANN HTG 99.6% CONDNS DB,0.7080531498,0.8964139747,Pass,Pass,0.2886486583,0.4279267873,Pass,Pass
! <Program Control Information:Threads/Parallel Sims>, Threading Supported,Maximum Number of Threads, Env Set Threads (OMP_NUM_THREADS), EP Env Set Threads (EP_OMP_NUM_THREADS), IDF Set Threads, Number of Threads Used (Interior Radiant Exchange), Number Nominal Surfaces, Number Parallel Sims
Program Control:Threads/Parallel Sims, No,1, N/A, N/A, N/A, N/A, N/A, N/A
End of Data
